MODEL 1
REMARK VINA RESULT:    -5.395      0.000      0.000
REMARK INTER + INTRA:          -6.780
REMARK INTER:                  -6.498
REMARK INTRA:                  -0.281
REMARK UNBOUND:                -0.281
REMARK SMILES CC(=O)Oc1ccccc1C(=O)O
REMARK SMILES IDX 5 1 10 2 6 3 9 4 7 5 8 6 4 7 2 8 3 9 1 10 11 11 12 12 13 13
REMARK H PARENT 13 14
ROOT
ATOM      1  C1  UNL     1      19.890   3.937   1.909  1.00  0.00     0.145 A 
ATOM      2  C2  UNL     1      21.152   4.551   2.112  1.00  0.00     0.102 A 
ATOM      3  C3  UNL     1      18.740   4.513   2.485  1.00  0.00     0.048 A 
ATOM      4  C4  UNL     1      21.226   5.708   2.913  1.00  0.00     0.019 A 
ATOM      5  C5  UNL     1      18.838   5.659   3.273  1.00  0.00     0.004 A 
ATOM      6  C6  UNL     1      20.079   6.252   3.491  1.00  0.00     0.001 A 
ENDROOT
BRANCH   1   7
ATOM      7  O1  UNL     1      19.794   2.793   1.101  1.00  0.00    -0.426 OA
BRANCH   7   8
ATOM      8  C8  UNL     1      19.794   2.787  -0.300  1.00  0.00     0.308 C 
ATOM      9  O4  UNL     1      19.054   3.571  -0.954  1.00  0.00    -0.252 OA
ATOM     10  C9  UNL     1      20.594   1.758  -1.024  1.00  0.00     0.139 C 
ENDBRANCH   7   8
ENDBRANCH   1   7
BRANCH   2  11
ATOM     11  C7  UNL     1      22.396   3.999   1.513  1.00  0.00     0.339 C 
ATOM     12  O3  UNL     1      23.017   3.066   2.091  1.00  0.00    -0.246 OA
BRANCH  11  13
ATOM     13  O2  UNL     1      22.896   4.497   0.312  1.00  0.00    -0.478 OA
ATOM     14  H   UNL     1      20.410   5.245   0.998  1.00  0.00     0.297 HD
ENDBRANCH  11  13
ENDBRANCH   2  11
TORSDOF 4
ENDMDL
MODEL 2
REMARK VINA RESULT:    -5.393      1.568      3.100
REMARK INTER + INTRA:          -6.777
REMARK INTER:                  -6.501
REMARK INTRA:                  -0.276
REMARK UNBOUND:                -0.281
REMARK SMILES CC(=O)Oc1ccccc1C(=O)O
REMARK SMILES IDX 5 1 10 2 6 3 9 4 7 5 8 6 4 7 2 8 3 9 1 10 11 11 12 12 13 13
REMARK H PARENT 13 14
ROOT
ATOM      1  C1  UNL     1      20.036   3.999   1.961  1.00  0.00     0.145 A 
ATOM      2  C2  UNL     1      19.263   4.306   3.110  1.00  0.00     0.102 A 
ATOM      3  C3  UNL     1      21.096   4.852   1.594  1.00  0.00     0.048 A 
ATOM      4  C4  UNL     1      19.557   5.475   3.839  1.00  0.00     0.019 A 
ATOM      5  C5  UNL     1      21.369   6.004   2.330  1.00  0.00     0.004 A 
ATOM      6  C6  UNL     1      20.598   6.318   3.447  1.00  0.00     0.001 A 
ENDROOT
BRANCH   1   7
ATOM      7  O1  UNL     1      19.768   2.830   1.232  1.00  0.00    -0.426 OA
BRANCH   7   8
ATOM      8  C8  UNL     1      19.969   2.670  -0.145  1.00  0.00     0.308 C 
ATOM      9  O4  UNL     1      19.197   3.209  -0.983  1.00  0.00    -0.252 OA
ATOM     10  C9  UNL     1      21.043   1.752  -0.622  1.00  0.00     0.139 C 
ENDBRANCH   7   8
ENDBRANCH   1   7
BRANCH   2  11
ATOM     11  C7  UNL     1      18.145   3.432   3.556  1.00  0.00     0.339 C 
ATOM     12  O3  UNL     1      16.952   3.825   3.448  1.00  0.00    -0.246 OA
BRANCH  11  13
ATOM     13  O2  UNL     1      18.391   2.172   4.097  1.00  0.00    -0.478 OA
ATOM     14  H   UNL     1      17.354   2.252   1.622  1.00  0.00     0.297 HD
ENDBRANCH  11  13
ENDBRANCH   2  11
TORSDOF 4
ENDMDL
MODEL 3
REMARK VINA RESULT:    -5.302      1.784      3.408
REMARK INTER + INTRA:          -6.668
REMARK INTER:                  -6.359
REMARK INTRA:                  -0.309
REMARK UNBOUND:                -0.281
REMARK SMILES CC(=O)Oc1ccccc1C(=O)O
REMARK SMILES IDX 5 1 10 2 6 3 9 4 7 5 8 6 4 7 2 8 3 9 1 10 11 11 12 12 13 13
REMARK H PARENT 13 14
ROOT
ATOM      1  C1  UNL     1      19.582   4.867   2.287  1.00  0.00     0.145 A 
ATOM      2  C2  UNL     1      20.323   4.346   1.195  1.00  0.00     0.102 A 
ATOM      3  C3  UNL     1      20.140   5.891   3.076  1.00  0.00     0.048 A 
ATOM      4  C4  UNL     1      21.616   4.849   0.948  1.00  0.00     0.019 A 
ATOM      5  C5  UNL     1      21.422   6.373   2.812  1.00  0.00     0.004 A 
ATOM      6  C6  UNL     1      22.160   5.850   1.753  1.00  0.00     0.001 A 
ENDROOT
BRANCH   1   7
ATOM      7  O1  UNL     1      18.286   4.390   2.539  1.00  0.00    -0.426 OA
BRANCH   7   8
ATOM      8  C8  UNL     1      17.946   3.447   3.518  1.00  0.00     0.308 C 
ATOM      9  O4  UNL     1      16.749   3.086   3.687  1.00  0.00    -0.252 OA
ATOM     10  C9  UNL     1      18.998   2.953   4.451  1.00  0.00     0.139 C 
ENDBRANCH   7   8
ENDBRANCH   1   7
BRANCH   2  11
ATOM     11  C7  UNL     1      19.776   3.280   0.316  1.00  0.00     0.339 C 
ATOM     12  O3  UNL     1      19.914   2.066   0.632  1.00  0.00    -0.246 OA
BRANCH  11  13
ATOM     13  O2  UNL     1      19.106   3.595  -0.863  1.00  0.00    -0.478 OA
ATOM     14  H   UNL     1      19.975   1.068  -0.595  1.00  0.00     0.297 HD
ENDBRANCH  11  13
ENDBRANCH   2  11
TORSDOF 4
ENDMDL
MODEL 4
REMARK VINA RESULT:    -5.240      3.027      4.271
REMARK INTER + INTRA:          -6.593
REMARK INTER:                  -6.293
REMARK INTRA:                  -0.300
REMARK UNBOUND:                -0.281
REMARK SMILES CC(=O)Oc1ccccc1C(=O)O
REMARK SMILES IDX 5 1 10 2 6 3 9 4 7 5 8 6 4 7 2 8 3 9 1 10 11 11 12 12 13 13
REMARK H PARENT 13 14
ROOT
ATOM      1  C1  UNL     1      19.211   3.224   4.154  1.00  0.00     0.145 A 
ATOM      2  C2  UNL     1      19.229   4.566   3.696  1.00  0.00     0.102 A 
ATOM      3  C3  UNL     1      19.893   2.889   5.341  1.00  0.00     0.048 A 
ATOM      4  C4  UNL     1      19.956   5.526   4.427  1.00  0.00     0.019 A 
ATOM      5  C5  UNL     1      20.606   3.856   6.048  1.00  0.00     0.004 A 
ATOM      6  C6  UNL     1      20.642   5.171   5.589  1.00  0.00     0.001 A 
ENDROOT
BRANCH   1   7
ATOM      7  O1  UNL     1      18.478   2.256   3.448  1.00  0.00    -0.426 OA
BRANCH   7   8
ATOM      8  C8  UNL     1      17.266   1.693   3.867  1.00  0.00     0.308 C 
ATOM      9  O4  UNL     1      16.896   0.561   3.452  1.00  0.00    -0.252 OA
ATOM     10  C9  UNL     1      16.346   2.496   4.724  1.00  0.00     0.139 C 
ENDBRANCH   7   8
ENDBRANCH   1   7
BRANCH   2  11
ATOM     11  C7  UNL     1      18.511   4.981   2.463  1.00  0.00     0.339 C 
ATOM     12  O3  UNL     1      17.596   5.847   2.523  1.00  0.00    -0.246 OA
BRANCH  11  13
ATOM     13  O2  UNL     1      18.831   4.427   1.225  1.00  0.00    -0.478 OA
ATOM     14  H   UNL     1      20.609   6.133   2.293  1.00  0.00     0.297 HD
ENDBRANCH  11  13
ENDBRANCH   2  11
TORSDOF 4
ENDMDL
MODEL 5
REMARK VINA RESULT:    -5.118      1.203      3.313
REMARK INTER + INTRA:          -6.446
REMARK INTER:                  -6.050
REMARK INTRA:                  -0.396
REMARK UNBOUND:                -0.281
REMARK SMILES CC(=O)Oc1ccccc1C(=O)O
REMARK SMILES IDX 5 1 10 2 6 3 9 4 7 5 8 6 4 7 2 8 3 9 1 10 11 11 12 12 13 13
REMARK H PARENT 13 14
ROOT
ATOM      1  C1  UNL     1      21.131   4.993   2.017  1.00  0.00     0.145 A 
ATOM      2  C2  UNL     1      19.918   4.366   1.632  1.00  0.00     0.102 A 
ATOM      3  C3  UNL     1      21.117   5.945   3.055  1.00  0.00     0.048 A 
ATOM      4  C4  UNL     1      18.723   4.735   2.280  1.00  0.00     0.019 A 
ATOM      5  C5  UNL     1      19.922   6.295   3.684  1.00  0.00     0.004 A 
ATOM      6  C6  UNL     1      18.727   5.695   3.294  1.00  0.00     0.001 A 
ENDROOT
BRANCH   1   7
ATOM      7  O1  UNL     1      22.334   4.627   1.393  1.00  0.00    -0.426 OA
BRANCH   7   8
ATOM      8  C8  UNL     1      23.025   5.398   0.449  1.00  0.00     0.308 C 
ATOM      9  O4  UNL     1      22.450   5.826  -0.589  1.00  0.00    -0.252 OA
ATOM     10  C9  UNL     1      24.490   5.615   0.618  1.00  0.00     0.139 C 
ENDBRANCH   7   8
ENDBRANCH   1   7
BRANCH   2  11
ATOM     11  C7  UNL     1      19.876   3.341   0.556  1.00  0.00     0.339 C 
ATOM     12  O3  UNL     1      19.864   3.693  -0.655  1.00  0.00    -0.246 OA
BRANCH  11  13
ATOM     13  O2  UNL     1      19.850   1.982   0.861  1.00  0.00    -0.478 OA
ATOM     14  H   UNL     1      17.563   3.349   1.199  1.00  0.00     0.297 HD
ENDBRANCH  11  13
ENDBRANCH   2  11
TORSDOF 4
ENDMDL
