MODEL 1
REMARK VINA RESULT:    -4.428      0.000      0.000
REMARK INTER + INTRA:          -5.147
REMARK INTER:                  -5.463
REMARK INTRA:                   0.316
REMARK UNBOUND:                 0.316
REMARK SMILES C[C@H](NC(O)C1CCCCC1)C(O)O
REMARK SMILES IDX 2 1 1 2 12 3 13 4 14 6 3 8 4 10 6 11 7 12 11 13 8 14 10 15
REMARK SMILES IDX 9 16 5 17
REMARK H PARENT 13 5 14 7 3 9 5 18
ROOT
ATOM      1  C   ASP A   1       7.390   8.373  12.486  1.00  0.00     0.109 C 
ATOM      2  C   ASP A   1       6.910   9.814  12.406  1.00  0.00     0.030 C 
ENDROOT
BRANCH   1   3
ATOM      3  C   ASP A   1       6.210   7.417  12.437  1.00  0.00     0.260 C 
BRANCH   3   4
ATOM      4  O   ASP A   1       6.345   6.311  13.209  1.00  0.00    -0.367 OA
ATOM      5  H   UNL     1       6.370   8.589  15.557  1.00  0.00     0.213 HD
ENDBRANCH   3   4
BRANCH   3   6
ATOM      6  O   ASP A   1       5.207   7.628  11.762  1.00  0.00    -0.367 OA
ATOM      7  H   UNL     1       9.252   6.379  13.335  1.00  0.00     0.213 HD
ENDBRANCH   3   6
ENDBRANCH   1   3
BRANCH   1   8
ATOM      8  N   ASP A   1       8.342   8.098  11.442  1.00  0.00    -0.285 NA
ATOM      9  H   UNL     1       9.112   7.764  10.967  1.00  0.00     0.125 HD
BRANCH   8  10
ATOM     10  C   ASP A   1       9.630   7.648  11.702  1.00  0.00     0.185 C 
BRANCH  10  11
ATOM     11  C   ASP A   1       9.971   6.303  11.171  1.00  0.00     0.033 C 
ATOM     12  C   ASP A   1      10.965   6.196  10.219  1.00  0.00     0.008 C 
ATOM     13  C   ASP A   1       9.284   5.206  11.644  1.00  0.00     0.008 C 
ATOM     14  C   ASP A   1      11.284   4.933   9.720  1.00  0.00     0.000 C 
ATOM     15  C   ASP A   1       9.604   3.944  11.145  1.00  0.00     0.000 C 
ATOM     16  C   ASP A   1      10.604   3.807  10.181  1.00  0.00     0.000 C 
ENDBRANCH  10  11
BRANCH  10  17
ATOM     17  O   ASP A   1      10.484   8.287  12.312  1.00  0.00    -0.378 OA
ATOM     18  H   UNL     1       9.129   7.205  11.090  1.00  0.00     0.212 HD
ENDBRANCH  10  17
ENDBRANCH   8  10
ENDBRANCH   1   8
TORSDOF 7
ENDMDL
MODEL 2
REMARK VINA RESULT:    -4.315      2.378      3.667
REMARK INTER + INTRA:          -5.008
REMARK INTER:                  -5.411
REMARK INTRA:                   0.403
REMARK UNBOUND:                 0.316
REMARK SMILES C[C@H](NC(O)C1CCCCC1)C(O)O
REMARK SMILES IDX 2 1 1 2 12 3 13 4 14 6 3 8 4 10 6 11 7 12 11 13 8 14 10 15
REMARK SMILES IDX 9 16 5 17
REMARK H PARENT 13 5 14 7 3 9 5 18
ROOT
ATOM      1  C   ASP A   1       5.645  10.283  13.336  1.00  0.00     0.109 C 
ATOM      2  C   ASP A   1       4.905  10.723  14.589  1.00  0.00     0.030 C 
ENDROOT
BRANCH   1   3
ATOM      3  C   ASP A   1       6.693  11.314  12.950  1.00  0.00     0.260 C 
BRANCH   3   4
ATOM      4  O   ASP A   1       6.526  12.532  13.519  1.00  0.00    -0.367 OA
ATOM      5  H   UNL     1       7.104  10.774  16.217  1.00  0.00     0.213 HD
ENDBRANCH   3   4
BRANCH   3   6
ATOM      6  O   ASP A   1       7.625  11.066  12.191  1.00  0.00    -0.367 OA
ATOM      7  H   UNL     1       4.721  11.293  15.642  1.00  0.00     0.213 HD
ENDBRANCH   3   6
ENDBRANCH   1   3
BRANCH   1   8
ATOM      8  N   ASP A   1       6.223   8.978  13.521  1.00  0.00    -0.285 NA
ATOM      9  H   UNL     1       6.577   8.099  13.346  1.00  0.00     0.125 HD
BRANCH   8  10
ATOM     10  C   ASP A   1       6.148   7.982  12.556  1.00  0.00     0.185 C 
BRANCH  10  11
ATOM     11  C   ASP A   1       7.394   7.207  12.321  1.00  0.00     0.033 C 
ATOM     12  C   ASP A   1       8.384   7.761  11.536  1.00  0.00     0.008 C 
ATOM     13  C   ASP A   1       7.519   5.959  12.893  1.00  0.00     0.008 C 
ATOM     14  C   ASP A   1       9.553   7.032  11.314  1.00  0.00     0.000 C 
ATOM     15  C   ASP A   1       8.688   5.231  12.671  1.00  0.00     0.000 C 
ATOM     16  C   ASP A   1       9.705   5.767  11.881  1.00  0.00     0.000 C 
ENDBRANCH  10  11
BRANCH  10  17
ATOM     17  O   ASP A   1       5.136   7.701  11.919  1.00  0.00    -0.378 OA
ATOM     18  H   UNL     1       6.817   8.053  13.164  1.00  0.00     0.212 HD
ENDBRANCH  10  17
ENDBRANCH   8  10
ENDBRANCH   1   8
TORSDOF 7
ENDMDL
MODEL 3
REMARK VINA RESULT:    -4.165      1.301      2.203
REMARK INTER + INTRA:          -4.823
REMARK INTER:                  -5.363
REMARK INTRA:                   0.540
REMARK UNBOUND:                 0.316
REMARK SMILES C[C@H](NC(O)C1CCCCC1)C(O)O
REMARK SMILES IDX 2 1 1 2 12 3 13 4 14 6 3 8 4 10 6 11 7 12 11 13 8 14 10 15
REMARK SMILES IDX 9 16 5 17
REMARK H PARENT 13 5 14 7 3 9 5 18
ROOT
ATOM      1  C   ASP A   1       7.145   8.302  11.928  1.00  0.00     0.109 C 
ATOM      2  C   ASP A   1       5.916   7.442  12.178  1.00  0.00     0.030 C 
ENDROOT
BRANCH   1   3
ATOM      3  C   ASP A   1       6.862   9.750  12.294  1.00  0.00     0.260 C 
BRANCH   3   4
ATOM      4  O   ASP A   1       5.643   9.967  12.844  1.00  0.00    -0.367 OA
ATOM      5  H   UNL     1       5.669   6.696  12.914  1.00  0.00     0.213 HD
ENDBRANCH   3   4
BRANCH   3   6
ATOM      6  O   ASP A   1       7.673  10.654  12.116  1.00  0.00    -0.367 OA
ATOM      7  H   UNL     1       5.172   7.263  13.739  1.00  0.00     0.213 HD
ENDBRANCH   3   6
ENDBRANCH   1   3
BRANCH   1   8
ATOM      8  N   ASP A   1       8.281   7.784  12.645  1.00  0.00    -0.285 NA
ATOM      9  H   UNL     1       9.185   7.569  12.897  1.00  0.00     0.125 HD
BRANCH   8  10
ATOM     10  C   ASP A   1       9.536   7.652  12.066  1.00  0.00     0.185 C 
BRANCH  10  11
ATOM     11  C   ASP A   1       9.831   6.336  11.441  1.00  0.00     0.033 C 
ATOM     12  C   ASP A   1       9.156   5.220  11.891  1.00  0.00     0.008 C 
ATOM     13  C   ASP A   1      10.770   6.273  10.433  1.00  0.00     0.008 C 
ATOM     14  C   ASP A   1       9.434   3.985  11.306  1.00  0.00     0.000 C 
ATOM     15  C   ASP A   1      11.047   5.038   9.848  1.00  0.00     0.000 C 
ATOM     16  C   ASP A   1      10.380   3.893  10.285  1.00  0.00     0.000 C 
ENDBRANCH  10  11
BRANCH  10  17
ATOM     17  O   ASP A   1      10.383   8.540  12.023  1.00  0.00    -0.378 OA
ATOM     18  H   UNL     1       8.779   7.153  12.056  1.00  0.00     0.212 HD
ENDBRANCH  10  17
ENDBRANCH   8  10
ENDBRANCH   1   8
TORSDOF 7
ENDMDL
MODEL 4
REMARK VINA RESULT:    -3.968      3.304      5.608
REMARK INTER + INTRA:          -4.580
REMARK INTER:                  -4.802
REMARK INTRA:                   0.222
REMARK UNBOUND:                 0.316
REMARK SMILES C[C@H](NC(O)C1CCCCC1)C(O)O
REMARK SMILES IDX 2 1 1 2 12 3 13 4 14 6 3 8 4 10 6 11 7 12 11 13 8 14 10 15
REMARK SMILES IDX 9 16 5 17
REMARK H PARENT 13 5 14 7 3 9 5 18
ROOT
ATOM      1  C   ASP A   1       7.402   2.195  12.514  1.00  0.00     0.109 C 
ATOM      2  C   ASP A   1       6.804   0.839  12.853  1.00  0.00     0.030 C 
ENDROOT
BRANCH   1   3
ATOM      3  C   ASP A   1       7.986   2.181  11.111  1.00  0.00     0.260 C 
BRANCH   3   4
ATOM      4  O   ASP A   1       8.927   3.128  10.880  1.00  0.00    -0.367 OA
ATOM      5  H   UNL     1       9.104   3.007  14.144  1.00  0.00     0.213 HD
ENDBRANCH   3   4
BRANCH   3   6
ATOM      6  O   ASP A   1       7.644   1.372  10.254  1.00  0.00    -0.367 OA
ATOM      7  H   UNL     1       7.897   4.727  13.266  1.00  0.00     0.213 HD
ENDBRANCH   3   6
ENDBRANCH   1   3
BRANCH   1   8
ATOM      8  N   ASP A   1       6.420   3.236  12.672  1.00  0.00    -0.285 NA
ATOM      9  H   UNL     1       5.996   4.068  12.910  1.00  0.00     0.125 HD
BRANCH   8  10
ATOM     10  C   ASP A   1       6.572   4.278  13.577  1.00  0.00     0.185 C 
BRANCH  10  11
ATOM     11  C   ASP A   1       6.780   5.627  12.991  1.00  0.00     0.033 C 
ATOM     12  C   ASP A   1       8.063   6.026  12.677  1.00  0.00     0.008 C 
ATOM     13  C   ASP A   1       5.684   6.436  12.779  1.00  0.00     0.008 C 
ATOM     14  C   ASP A   1       8.257   7.293  12.127  1.00  0.00     0.000 C 
ATOM     15  C   ASP A   1       5.879   7.703  12.229  1.00  0.00     0.000 C 
ATOM     16  C   ASP A   1       7.166   8.132  11.904  1.00  0.00     0.000 C 
ENDBRANCH  10  11
BRANCH  10  17
ATOM     17  O   ASP A   1       6.527   4.154  14.799  1.00  0.00    -0.378 OA
ATOM     18  H   UNL     1       6.659   4.167  12.682  1.00  0.00     0.212 HD
ENDBRANCH  10  17
ENDBRANCH   8  10
ENDBRANCH   1   8
TORSDOF 7
ENDMDL
MODEL 5
REMARK VINA RESULT:    -3.903     12.101     14.104
REMARK INTER + INTRA:          -4.500
REMARK INTER:                  -4.804
REMARK INTRA:                   0.303
REMARK UNBOUND:                 0.316
REMARK SMILES C[C@H](NC(O)C1CCCCC1)C(O)O
REMARK SMILES IDX 2 1 1 2 12 3 13 4 14 6 3 8 4 10 6 11 7 12 11 13 8 14 10 15
REMARK SMILES IDX 9 16 5 17
REMARK H PARENT 13 5 14 7 3 9 5 18
ROOT
ATOM      1  C   ASP A   1      13.623   0.703   1.823  1.00  0.00     0.109 C 
ATOM      2  C   ASP A   1      12.782   1.009   3.052  1.00  0.00     0.030 C 
ENDROOT
BRANCH   1   3
ATOM      3  C   ASP A   1      12.731   0.352   0.644  1.00  0.00     0.260 C 
BRANCH   3   4
ATOM      4  O   ASP A   1      13.370   0.281  -0.549  1.00  0.00    -0.367 OA
ATOM      5  H   UNL     1      10.696  -1.453  -1.288  1.00  0.00     0.213 HD
ENDBRANCH   3   4
BRANCH   3   6
ATOM      6  O   ASP A   1      11.528   0.140   0.757  1.00  0.00    -0.367 OA
ATOM      7  H   UNL     1      15.946  -0.043  -0.155  1.00  0.00     0.213 HD
ENDBRANCH   3   6
ENDBRANCH   1   3
BRANCH   1   8
ATOM      8  N   ASP A   1      14.497   1.806   1.520  1.00  0.00    -0.285 NA
ATOM      9  H   UNL     1      15.287   2.325   1.332  1.00  0.00     0.125 HD
BRANCH   8  10
ATOM     10  C   ASP A   1      15.870   1.750   1.720  1.00  0.00     0.185 C 
BRANCH  10  11
ATOM     11  C   ASP A   1      16.715   2.070   0.541  1.00  0.00     0.033 C 
ATOM     12  C   ASP A   1      17.323   3.307   0.474  1.00  0.00     0.008 C 
ATOM     13  C   ASP A   1      16.864   1.122  -0.449  1.00  0.00     0.008 C 
ATOM     14  C   ASP A   1      18.115   3.608  -0.634  1.00  0.00     0.000 C 
ATOM     15  C   ASP A   1      17.656   1.423  -1.556  1.00  0.00     0.000 C 
ATOM     16  C   ASP A   1      18.282   2.667  -1.649  1.00  0.00     0.000 C 
ENDBRANCH  10  11
BRANCH  10  17
ATOM     17  O   ASP A   1      16.410   1.477   2.789  1.00  0.00    -0.378 OA
ATOM     18  H   UNL     1      15.494   2.147   0.998  1.00  0.00     0.212 HD
ENDBRANCH  10  17
ENDBRANCH   8  10
ENDBRANCH   1   8
TORSDOF 7
ENDMDL
MODEL 6
REMARK VINA RESULT:    -3.893      1.619      1.892
REMARK INTER + INTRA:          -4.487
REMARK INTER:                  -4.810
REMARK INTRA:                   0.323
REMARK UNBOUND:                 0.316
REMARK SMILES C[C@H](NC(O)C1CCCCC1)C(O)O
REMARK SMILES IDX 2 1 1 2 12 3 13 4 14 6 3 8 4 10 6 11 7 12 11 13 8 14 10 15
REMARK SMILES IDX 9 16 5 17
REMARK H PARENT 13 5 14 7 3 9 5 18
ROOT
ATOM      1  C   ASP A   1       7.114   7.177  12.880  1.00  0.00     0.109 C 
ATOM      2  C   ASP A   1       7.514   8.124  11.759  1.00  0.00     0.030 C 
ENDROOT
BRANCH   1   3
ATOM      3  C   ASP A   1       5.638   7.334  13.205  1.00  0.00     0.260 C 
BRANCH   3   4
ATOM      4  O   ASP A   1       5.194   6.547  14.215  1.00  0.00    -0.367 OA
ATOM      5  H   UNL     1       5.157   4.350  11.791  1.00  0.00     0.213 HD
ENDBRANCH   3   4
BRANCH   3   6
ATOM      6  O   ASP A   1       4.903   8.116  12.611  1.00  0.00    -0.367 OA
ATOM      7  H   UNL     1       8.174   5.270  13.872  1.00  0.00     0.213 HD
ENDBRANCH   3   6
ENDBRANCH   1   3
BRANCH   1   8
ATOM      8  N   ASP A   1       7.443   5.818  12.535  1.00  0.00    -0.285 NA
ATOM      9  H   UNL     1       7.880   4.960  12.506  1.00  0.00     0.125 HD
BRANCH   8  10
ATOM     10  C   ASP A   1       8.680   5.253  12.816  1.00  0.00     0.185 C 
BRANCH  10  11
ATOM     11  C   ASP A   1       9.540   4.952  11.642  1.00  0.00     0.033 C 
ATOM     12  C   ASP A   1      10.424   5.915  11.200  1.00  0.00     0.008 C 
ATOM     13  C   ASP A   1       9.427   3.721  11.032  1.00  0.00     0.008 C 
ATOM     14  C   ASP A   1      11.231   5.631  10.098  1.00  0.00     0.000 C 
ATOM     15  C   ASP A   1      10.234   3.438   9.931  1.00  0.00     0.000 C 
ATOM     16  C   ASP A   1      11.136   4.394   9.462  1.00  0.00     0.000 C 
ENDBRANCH  10  11
BRANCH  10  17
ATOM     17  O   ASP A   1       9.099   5.014  13.945  1.00  0.00    -0.378 OA
ATOM     18  H   UNL     1       8.565   5.500  11.951  1.00  0.00     0.212 HD
ENDBRANCH  10  17
ENDBRANCH   8  10
ENDBRANCH   1   8
TORSDOF 7
ENDMDL
MODEL 7
REMARK VINA RESULT:    -3.887     13.117     14.627
REMARK INTER + INTRA:          -4.479
REMARK INTER:                  -4.933
REMARK INTRA:                   0.454
REMARK UNBOUND:                 0.316
REMARK SMILES C[C@H](NC(O)C1CCCCC1)C(O)O
REMARK SMILES IDX 2 1 1 2 12 3 13 4 14 6 3 8 4 10 6 11 7 12 11 13 8 14 10 15
REMARK SMILES IDX 9 16 5 17
REMARK H PARENT 13 5 14 7 3 9 5 18
ROOT
ATOM      1  C   ASP A   1       7.850  16.920   0.606  1.00  0.00     0.109 C 
ATOM      2  C   ASP A   1       6.724  17.812   1.105  1.00  0.00     0.030 C 
ENDROOT
BRANCH   1   3
ATOM      3  C   ASP A   1       8.055  17.110  -0.887  1.00  0.00     0.260 C 
BRANCH   3   4
ATOM      4  O   ASP A   1       8.972  18.050  -1.218  1.00  0.00    -0.367 OA
ATOM      5  H   UNL     1       8.161  17.036  -4.221  1.00  0.00     0.213 HD
ENDBRANCH   3   4
BRANCH   3   6
ATOM      6  O   ASP A   1       7.448  16.459  -1.732  1.00  0.00    -0.367 OA
ATOM      7  H   UNL     1       8.936  18.434   2.046  1.00  0.00     0.213 HD
ENDBRANCH   3   6
ENDBRANCH   1   3
BRANCH   1   8
ATOM      8  N   ASP A   1       9.060  17.170   1.346  1.00  0.00    -0.285 NA
ATOM      9  H   UNL     1       9.817  17.055   1.931  1.00  0.00     0.125 HD
BRANCH   8  10
ATOM     10  C   ASP A   1       9.451  16.391   2.427  1.00  0.00     0.185 C 
BRANCH  10  11
ATOM     11  C   ASP A   1       9.556  17.092   3.733  1.00  0.00     0.033 C 
ATOM     12  C   ASP A   1       8.443  17.736   4.234  1.00  0.00     0.008 C 
ATOM     13  C   ASP A   1      10.763  17.079   4.400  1.00  0.00     0.008 C 
ATOM     14  C   ASP A   1       8.543  18.395   5.460  1.00  0.00     0.000 C 
ATOM     15  C   ASP A   1      10.862  17.738   5.625  1.00  0.00     0.000 C 
ATOM     16  C   ASP A   1       9.752  18.397   6.155  1.00  0.00     0.000 C 
ENDBRANCH  10  11
BRANCH  10  17
ATOM     17  O   ASP A   1       9.688  15.187   2.372  1.00  0.00    -0.378 OA
ATOM     18  H   UNL     1       9.099  17.216   2.560  1.00  0.00     0.212 HD
ENDBRANCH  10  17
ENDBRANCH   8  10
ENDBRANCH   1   8
TORSDOF 7
ENDMDL
MODEL 8
REMARK VINA RESULT:    -3.868      2.193      5.109
REMARK INTER + INTRA:          -4.456
REMARK INTER:                  -4.714
REMARK INTRA:                   0.258
REMARK UNBOUND:                 0.316
REMARK SMILES C[C@H](NC(O)C1CCCCC1)C(O)O
REMARK SMILES IDX 2 1 1 2 12 3 13 4 14 6 3 8 4 10 6 11 7 12 11 13 8 14 10 15
REMARK SMILES IDX 9 16 5 17
REMARK H PARENT 13 5 14 7 3 9 5 18
ROOT
ATOM      1  C   ASP A   1      11.144   5.928  10.937  1.00  0.00     0.109 C 
ATOM      2  C   ASP A   1      10.549   4.650  10.365  1.00  0.00     0.030 C 
ENDROOT
BRANCH   1   3
ATOM      3  C   ASP A   1      12.534   6.165  10.371  1.00  0.00     0.260 C 
BRANCH   3   4
ATOM      4  O   ASP A   1      13.039   7.399  10.608  1.00  0.00    -0.367 OA
ATOM      5  H   UNL     1      13.363   6.123  13.603  1.00  0.00     0.213 HD
ENDBRANCH   3   4
BRANCH   3   6
ATOM      6  O   ASP A   1      13.160   5.307   9.755  1.00  0.00    -0.367 OA
ATOM      7  H   UNL     1      10.525   8.747  11.028  1.00  0.00     0.213 HD
ENDBRANCH   3   6
ENDBRANCH   1   3
BRANCH   1   8
ATOM      8  N   ASP A   1      10.271   7.046  10.692  1.00  0.00    -0.285 NA
ATOM      9  H   UNL     1       9.750   7.847  10.817  1.00  0.00     0.125 HD
BRANCH   8  10
ATOM     10  C   ASP A   1       9.672   7.767  11.717  1.00  0.00     0.185 C 
BRANCH  10  11
ATOM     11  C   ASP A   1       8.318   7.313  12.128  1.00  0.00     0.033 C 
ATOM     12  C   ASP A   1       7.223   8.066  11.758  1.00  0.00     0.008 C 
ATOM     13  C   ASP A   1       8.201   6.155  12.867  1.00  0.00     0.008 C 
ATOM     14  C   ASP A   1       5.952   7.640  12.146  1.00  0.00     0.000 C 
ATOM     15  C   ASP A   1       6.930   5.729  13.254  1.00  0.00     0.000 C 
ATOM     16  C   ASP A   1       5.805   6.473  12.894  1.00  0.00     0.000 C 
ENDBRANCH  10  11
BRANCH  10  17
ATOM     17  O   ASP A   1      10.189   8.717  12.298  1.00  0.00    -0.378 OA
ATOM     18  H   UNL     1       9.129   7.196  11.269  1.00  0.00     0.212 HD
ENDBRANCH  10  17
ENDBRANCH   8  10
ENDBRANCH   1   8
TORSDOF 7
ENDMDL
MODEL 9
REMARK VINA RESULT:    -3.789      9.740     11.671
REMARK INTER + INTRA:          -4.358
REMARK INTER:                  -4.600
REMARK INTRA:                   0.241
REMARK UNBOUND:                 0.316
REMARK SMILES C[C@H](NC(O)C1CCCCC1)C(O)O
REMARK SMILES IDX 2 1 1 2 12 3 13 4 14 6 3 8 4 10 6 11 7 12 11 13 8 14 10 15
REMARK SMILES IDX 9 16 5 17
REMARK H PARENT 13 5 14 7 3 9 5 18
ROOT
ATOM      1  C   ASP A   1      13.531   1.091   1.923  1.00  0.00     0.109 C 
ATOM      2  C   ASP A   1      14.949   1.369   1.449  1.00  0.00     0.030 C 
ENDROOT
BRANCH   1   3
ATOM      3  C   ASP A   1      12.735   0.392   0.834  1.00  0.00     0.260 C 
BRANCH   3   4
ATOM      4  O   ASP A   1      11.482   0.024   1.194  1.00  0.00    -0.367 OA
ATOM      5  H   UNL     1      11.962  -2.093  -1.253  1.00  0.00     0.213 HD
ENDBRANCH   3   4
BRANCH   3   6
ATOM      6  O   ASP A   1      13.183   0.183  -0.290  1.00  0.00    -0.367 OA
ATOM      7  H   UNL     1      12.353   0.306   4.147  1.00  0.00     0.213 HD
ENDBRANCH   3   6
ENDBRANCH   1   3
BRANCH   1   8
ATOM      8  N   ASP A   1      13.545   0.329   3.144  1.00  0.00    -0.285 NA
ATOM      9  H   UNL     1      13.376   0.043   4.049  1.00  0.00     0.125 HD
BRANCH   8  10
ATOM     10  C   ASP A   1      13.162   0.865   4.366  1.00  0.00     0.185 C 
BRANCH  10  11
ATOM     11  C   ASP A   1      14.252   1.431   5.202  1.00  0.00     0.033 C 
ATOM     12  C   ASP A   1      14.250   2.784   5.472  1.00  0.00     0.008 C 
ATOM     13  C   ASP A   1      15.231   0.586   5.680  1.00  0.00     0.008 C 
ATOM     14  C   ASP A   1      15.275   3.314   6.256  1.00  0.00     0.000 C 
ATOM     15  C   ASP A   1      16.255   1.117   6.463  1.00  0.00     0.000 C 
ATOM     16  C   ASP A   1      16.278   2.482   6.751  1.00  0.00     0.000 C 
ENDBRANCH  10  11
BRANCH  10  17
ATOM     17  O   ASP A   1      12.004   0.915   4.776  1.00  0.00    -0.378 OA
ATOM     18  H   UNL     1      13.924   0.836   3.877  1.00  0.00     0.212 HD
ENDBRANCH  10  17
ENDBRANCH   8  10
ENDBRANCH   1   8
TORSDOF 7
ENDMDL
