MODEL 1
REMARK VINA RESULT:    -4.190      0.000      0.000
REMARK INTER + INTRA:          -4.968
REMARK INTER:                  -5.170
REMARK INTRA:                   0.202
REMARK UNBOUND:                 0.202
REMARK SMILES C[C@H](NC(O)C1CCCCC1)C(O)O
REMARK SMILES IDX 2 1 1 2 12 3 13 4 14 6 3 8 4 10 6 11 7 12 11 13 8 14 10 15
REMARK SMILES IDX 9 16 5 17
REMARK H PARENT 13 5 14 7 3 9 5 18
ROOT
ATOM      1  C   ASP A   1      15.089   8.506   2.656  1.00  0.00     0.109 C 
ATOM      2  C   ASP A   1      16.140   8.505   3.756  1.00  0.00     0.030 C 
ENDROOT
BRANCH   1   3
ATOM      3  C   ASP A   1      15.665   7.932   1.373  1.00  0.00     0.260 C 
BRANCH   3   4
ATOM      4  O   ASP A   1      14.838   7.089   0.709  1.00  0.00    -0.367 OA
ATOM      5  H   UNL     1      14.177   9.851  -0.916  1.00  0.00     0.213 HD
ENDBRANCH   3   4
BRANCH   3   6
ATOM      6  O   ASP A   1      16.786   8.213   0.960  1.00  0.00    -0.367 OA
ATOM      7  H   UNL     1      12.749   6.360   1.776  1.00  0.00     0.213 HD
ENDBRANCH   3   6
ENDBRANCH   1   3
BRANCH   1   8
ATOM      8  N   ASP A   1      13.913   7.792   3.079  1.00  0.00    -0.285 NA
ATOM      9  H   UNL     1      12.993   7.558   3.247  1.00  0.00     0.125 HD
BRANCH   8  10
ATOM     10  C   ASP A   1      12.677   8.408   3.230  1.00  0.00     0.185 C 
BRANCH  10  11
ATOM     11  C   ASP A   1      12.214   8.609   4.627  1.00  0.00     0.033 C 
ATOM     12  C   ASP A   1      11.671   7.539   5.309  1.00  0.00     0.008 C 
ATOM     13  C   ASP A   1      12.341   9.858   5.197  1.00  0.00     0.008 C 
ATOM     14  C   ASP A   1      11.236   7.729   6.621  1.00  0.00     0.000 C 
ATOM     15  C   ASP A   1      11.906  10.047   6.509  1.00  0.00     0.000 C 
ATOM     16  C   ASP A   1      11.352   8.982   7.220  1.00  0.00     0.000 C 
ENDBRANCH  10  11
BRANCH  10  17
ATOM     17  O   ASP A   1      11.974   8.801   2.302  1.00  0.00    -0.378 OA
ATOM     18  H   UNL     1      13.093   7.938   3.884  1.00  0.00     0.212 HD
ENDBRANCH  10  17
ENDBRANCH   8  10
ENDBRANCH   1   8
TORSDOF 7
ENDMDL
MODEL 2
REMARK VINA RESULT:    -4.189      4.902      7.664
REMARK INTER + INTRA:          -4.966
REMARK INTER:                  -5.506
REMARK INTRA:                   0.540
REMARK UNBOUND:                 0.202
REMARK SMILES C[C@H](NC(O)C1CCCCC1)C(O)O
REMARK SMILES IDX 2 1 1 2 12 3 13 4 14 6 3 8 4 10 6 11 7 12 11 13 8 14 10 15
REMARK SMILES IDX 9 16 5 17
REMARK H PARENT 13 5 14 7 3 9 5 18
ROOT
ATOM      1  C   ASP A   1       8.957   7.578   9.964  1.00  0.00     0.109 C 
ATOM      2  C   ASP A   1       8.543   8.824  10.731  1.00  0.00     0.030 C 
ENDROOT
BRANCH   1   3
ATOM      3  C   ASP A   1       7.768   6.649   9.782  1.00  0.00     0.260 C 
BRANCH   3   4
ATOM      4  O   ASP A   1       7.832   5.500  10.496  1.00  0.00    -0.367 OA
ATOM      5  H   UNL     1       9.636   7.419  12.437  1.00  0.00     0.213 HD
ENDBRANCH   3   4
BRANCH   3   6
ATOM      6  O   ASP A   1       6.817   6.917   9.054  1.00  0.00    -0.367 OA
ATOM      7  H   UNL     1      10.194   6.962  12.051  1.00  0.00     0.213 HD
ENDBRANCH   3   6
ENDBRANCH   1   3
BRANCH   1   8
ATOM      8  N   ASP A   1       9.553   7.934   8.703  1.00  0.00    -0.285 NA
ATOM      9  H   UNL     1      10.167   7.988   7.963  1.00  0.00     0.125 HD
BRANCH   8  10
ATOM     10  C   ASP A   1      10.902   7.743   8.433  1.00  0.00     0.185 C 
BRANCH  10  11
ATOM     11  C   ASP A   1      11.384   8.255   7.124  1.00  0.00     0.033 C 
ATOM     12  C   ASP A   1      11.684   9.596   7.004  1.00  0.00     0.008 C 
ATOM     13  C   ASP A   1      11.513   7.374   6.071  1.00  0.00     0.008 C 
ATOM     14  C   ASP A   1      12.136  10.076   5.774  1.00  0.00     0.000 C 
ATOM     15  C   ASP A   1      11.965   7.855   4.843  1.00  0.00     0.000 C 
ATOM     16  C   ASP A   1      12.275   9.207   4.694  1.00  0.00     0.000 C 
ENDBRANCH  10  11
BRANCH  10  17
ATOM     17  O   ASP A   1      11.700   7.208   9.199  1.00  0.00    -0.378 OA
ATOM     18  H   UNL     1      10.372   8.312   7.967  1.00  0.00     0.212 HD
ENDBRANCH  10  17
ENDBRANCH   8  10
ENDBRANCH   1   8
TORSDOF 7
ENDMDL
MODEL 3
REMARK VINA RESULT:    -4.139      3.287      5.880
REMARK INTER + INTRA:          -4.905
REMARK INTER:                  -5.150
REMARK INTRA:                   0.245
REMARK UNBOUND:                 0.202
REMARK SMILES C[C@H](NC(O)C1CCCCC1)C(O)O
REMARK SMILES IDX 2 1 1 2 12 3 13 4 14 6 3 8 4 10 6 11 7 12 11 13 8 14 10 15
REMARK SMILES IDX 9 16 5 17
REMARK H PARENT 13 5 14 7 3 9 5 18
ROOT
ATOM      1  C   ASP A   1      11.375   9.049   7.456  1.00  0.00     0.109 C 
ATOM      2  C   ASP A   1      11.403  10.565   7.338  1.00  0.00     0.030 C 
ENDROOT
BRANCH   1   3
ATOM      3  C   ASP A   1      10.531   8.626   8.647  1.00  0.00     0.260 C 
BRANCH   3   4
ATOM      4  O   ASP A   1      10.426   7.286   8.819  1.00  0.00    -0.367 OA
ATOM      5  H   UNL     1       7.337   7.944   7.967  1.00  0.00     0.213 HD
ENDBRANCH   3   4
BRANCH   3   6
ATOM      6  O   ASP A   1       9.992   9.429   9.402  1.00  0.00    -0.367 OA
ATOM      7  H   UNL     1      11.031   5.950   6.717  1.00  0.00     0.213 HD
ENDBRANCH   3   6
ENDBRANCH   1   3
BRANCH   1   8
ATOM      8  N   ASP A   1      10.906   8.454   6.232  1.00  0.00    -0.285 NA
ATOM      9  H   UNL     1      10.801   7.852   5.487  1.00  0.00     0.125 HD
BRANCH   8  10
ATOM     10  C   ASP A   1      11.628   7.487   5.545  1.00  0.00     0.185 C 
BRANCH  10  11
ATOM     11  C   ASP A   1      12.739   7.984   4.693  1.00  0.00     0.033 C 
ATOM     12  C   ASP A   1      14.026   7.949   5.190  1.00  0.00     0.008 C 
ATOM     13  C   ASP A   1      12.448   8.466   3.434  1.00  0.00     0.008 C 
ATOM     14  C   ASP A   1      15.068   8.417   4.389  1.00  0.00     0.000 C 
ATOM     15  C   ASP A   1      13.490   8.933   2.634  1.00  0.00     0.000 C 
ATOM     16  C   ASP A   1      14.801   8.910   3.113  1.00  0.00     0.000 C 
ENDBRANCH  10  11
BRANCH  10  17
ATOM     17  O   ASP A   1      11.420   6.278   5.615  1.00  0.00    -0.378 OA
ATOM     18  H   UNL     1      11.890   8.326   5.324  1.00  0.00     0.212 HD
ENDBRANCH  10  17
ENDBRANCH   8  10
ENDBRANCH   1   8
TORSDOF 7
ENDMDL
MODEL 4
REMARK VINA RESULT:    -4.099      6.509      8.638
REMARK INTER + INTRA:          -4.856
REMARK INTER:                  -5.120
REMARK INTRA:                   0.265
REMARK UNBOUND:                 0.202
REMARK SMILES C[C@H](NC(O)C1CCCCC1)C(O)O
REMARK SMILES IDX 2 1 1 2 12 3 13 4 14 6 3 8 4 10 6 11 7 12 11 13 8 14 10 15
REMARK SMILES IDX 9 16 5 17
REMARK H PARENT 13 5 14 7 3 9 5 18
ROOT
ATOM      1  C   ASP A   1      16.572   2.548  -3.924  1.00  0.00     0.109 C 
ATOM      2  C   ASP A   1      17.526   1.446  -4.358  1.00  0.00     0.030 C 
ENDROOT
BRANCH   1   3
ATOM      3  C   ASP A   1      15.333   1.952  -3.279  1.00  0.00     0.260 C 
BRANCH   3   4
ATOM      4  O   ASP A   1      15.537   0.774  -2.642  1.00  0.00    -0.367 OA
ATOM      5  H   UNL     1      13.484  -0.246  -4.977  1.00  0.00     0.213 HD
ENDBRANCH   3   4
BRANCH   3   6
ATOM      6  O   ASP A   1      14.233   2.494  -3.319  1.00  0.00    -0.367 OA
ATOM      7  H   UNL     1      18.627   1.511  -2.987  1.00  0.00     0.213 HD
ENDBRANCH   3   6
ENDBRANCH   1   3
BRANCH   1   8
ATOM      8  N   ASP A   1      17.236   3.476  -3.047  1.00  0.00    -0.285 NA
ATOM      9  H   UNL     1      17.494   4.288  -2.597  1.00  0.00     0.125 HD
BRANCH   8  10
ATOM     10  C   ASP A   1      17.202   4.850  -3.246  1.00  0.00     0.185 C 
BRANCH  10  11
ATOM     11  C   ASP A   1      16.607   5.654  -2.147  1.00  0.00     0.033 C 
ATOM     12  C   ASP A   1      15.241   5.848  -2.129  1.00  0.00     0.008 C 
ATOM     13  C   ASP A   1      17.439   6.180  -1.182  1.00  0.00     0.008 C 
ATOM     14  C   ASP A   1      14.684   6.604  -1.097  1.00  0.00     0.000 C 
ATOM     15  C   ASP A   1      16.881   6.936  -0.151  1.00  0.00     0.000 C 
ATOM     16  C   ASP A   1      15.503   7.148  -0.109  1.00  0.00     0.000 C 
ENDBRANCH  10  11
BRANCH  10  17
ATOM     17  O   ASP A   1      17.640   5.423  -4.240  1.00  0.00    -0.378 OA
ATOM     18  H   UNL     1      17.048   4.307  -2.537  1.00  0.00     0.212 HD
ENDBRANCH  10  17
ENDBRANCH   8  10
ENDBRANCH   1   8
TORSDOF 7
ENDMDL
MODEL 5
REMARK VINA RESULT:    -3.884      2.127      5.987
REMARK INTER + INTRA:          -4.591
REMARK INTER:                  -4.910
REMARK INTRA:                   0.320
REMARK UNBOUND:                 0.202
REMARK SMILES C[C@H](NC(O)C1CCCCC1)C(O)O
REMARK SMILES IDX 2 1 1 2 12 3 13 4 14 6 3 8 4 10 6 11 7 12 11 13 8 14 10 15
REMARK SMILES IDX 9 16 5 17
REMARK H PARENT 13 5 14 7 3 9 5 18
ROOT
ATOM      1  C   ASP A   1      13.938   8.797   3.886  1.00  0.00     0.109 C 
ATOM      2  C   ASP A   1      14.161   9.868   4.942  1.00  0.00     0.030 C 
ENDROOT
BRANCH   1   3
ATOM      3  C   ASP A   1      12.470   8.732   3.499  1.00  0.00     0.260 C 
BRANCH   3   4
ATOM      4  O   ASP A   1      11.616   8.581   4.540  1.00  0.00    -0.367 OA
ATOM      5  H   UNL     1      14.090  10.040   6.106  1.00  0.00     0.213 HD
ENDBRANCH   3   4
BRANCH   3   6
ATOM      6  O   ASP A   1      12.081   8.817   2.338  1.00  0.00    -0.367 OA
ATOM      7  H   UNL     1      14.373   9.038   6.222  1.00  0.00     0.213 HD
ENDBRANCH   3   6
ENDBRANCH   1   3
BRANCH   1   8
ATOM      8  N   ASP A   1      14.781   9.030   2.742  1.00  0.00    -0.285 NA
ATOM      9  H   UNL     1      15.383   8.889   2.003  1.00  0.00     0.125 HD
BRANCH   8  10
ATOM     10  C   ASP A   1      15.739   8.118   2.320  1.00  0.00     0.185 C 
BRANCH  10  11
ATOM     11  C   ASP A   1      15.714   7.767   0.876  1.00  0.00     0.033 C 
ATOM     12  C   ASP A   1      16.684   8.291   0.047  1.00  0.00     0.008 C 
ATOM     13  C   ASP A   1      14.722   6.929   0.412  1.00  0.00     0.008 C 
ATOM     14  C   ASP A   1      16.659   7.962  -1.308  1.00  0.00     0.000 C 
ATOM     15  C   ASP A   1      14.698   6.600  -0.943  1.00  0.00     0.000 C 
ATOM     16  C   ASP A   1      15.667   7.117  -1.804  1.00  0.00     0.000 C 
ENDBRANCH  10  11
BRANCH  10  17
ATOM     17  O   ASP A   1      16.592   7.614   3.046  1.00  0.00    -0.378 OA
ATOM     18  H   UNL     1      15.093   8.627   1.940  1.00  0.00     0.212 HD
ENDBRANCH  10  17
ENDBRANCH   8  10
ENDBRANCH   1   8
TORSDOF 7
ENDMDL
MODEL 6
REMARK VINA RESULT:    -3.788      1.530      2.205
REMARK INTER + INTRA:          -4.472
REMARK INTER:                  -4.724
REMARK INTRA:                   0.252
REMARK UNBOUND:                 0.202
REMARK SMILES C[C@H](NC(O)C1CCCCC1)C(O)O
REMARK SMILES IDX 2 1 1 2 12 3 13 4 14 6 3 8 4 10 6 11 7 12 11 13 8 14 10 15
REMARK SMILES IDX 9 16 5 17
REMARK H PARENT 13 5 14 7 3 9 5 18
ROOT
ATOM      1  C   ASP A   1      15.101   8.275   2.831  1.00  0.00     0.109 C 
ATOM      2  C   ASP A   1      15.850   8.553   1.537  1.00  0.00     0.030 C 
ENDROOT
BRANCH   1   3
ATOM      3  C   ASP A   1      16.066   8.232   4.003  1.00  0.00     0.260 C 
BRANCH   3   4
ATOM      4  O   ASP A   1      15.567   7.664   5.127  1.00  0.00    -0.367 OA
ATOM      5  H   UNL     1      16.953   5.022   3.785  1.00  0.00     0.213 HD
ENDBRANCH   3   4
BRANCH   3   6
ATOM      6  O   ASP A   1      17.213   8.665   3.940  1.00  0.00    -0.367 OA
ATOM      7  H   UNL     1      13.231   6.672   3.189  1.00  0.00     0.213 HD
ENDBRANCH   3   6
ENDBRANCH   1   3
BRANCH   1   8
ATOM      8  N   ASP A   1      14.061   9.250   3.033  1.00  0.00    -0.285 NA
ATOM      9  H   UNL     1      13.216   9.657   3.254  1.00  0.00     0.125 HD
BRANCH   8  10
ATOM     10  C   ASP A   1      12.723   8.902   3.160  1.00  0.00     0.185 C 
BRANCH  10  11
ATOM     11  C   ASP A   1      12.226   8.713   4.547  1.00  0.00     0.033 C 
ATOM     12  C   ASP A   1      12.159   9.808   5.385  1.00  0.00     0.008 C 
ATOM     13  C   ASP A   1      11.851   7.451   4.954  1.00  0.00     0.008 C 
ATOM     14  C   ASP A   1      11.694   9.630   6.687  1.00  0.00     0.000 C 
ATOM     15  C   ASP A   1      11.386   7.274   6.257  1.00  0.00     0.000 C 
ATOM     16  C   ASP A   1      11.308   8.364   7.124  1.00  0.00     0.000 C 
ENDBRANCH  10  11
BRANCH  10  17
ATOM     17  O   ASP A   1      11.944   8.764   2.220  1.00  0.00    -0.378 OA
ATOM     18  H   UNL     1      13.260   9.207   3.823  1.00  0.00     0.212 HD
ENDBRANCH  10  17
ENDBRANCH   8  10
ENDBRANCH   1   8
TORSDOF 7
ENDMDL
MODEL 7
REMARK VINA RESULT:    -3.771      4.851      6.725
REMARK INTER + INTRA:          -4.451
REMARK INTER:                  -4.947
REMARK INTRA:                   0.496
REMARK UNBOUND:                 0.202
REMARK SMILES C[C@H](NC(O)C1CCCCC1)C(O)O
REMARK SMILES IDX 2 1 1 2 12 3 13 4 14 6 3 8 4 10 6 11 7 12 11 13 8 14 10 15
REMARK SMILES IDX 9 16 5 17
REMARK H PARENT 13 5 14 7 3 9 5 18
ROOT
ATOM      1  C   ASP A   1      11.386   8.108   7.305  1.00  0.00     0.109 C 
ATOM      2  C   ASP A   1      11.700   7.339   6.032  1.00  0.00     0.030 C 
ENDROOT
BRANCH   1   3
ATOM      3  C   ASP A   1      11.346   9.601   7.026  1.00  0.00     0.260 C 
BRANCH   3   4
ATOM      4  O   ASP A   1      11.422   9.935   5.715  1.00  0.00    -0.367 OA
ATOM      5  H   UNL     1      11.956  12.882   7.031  1.00  0.00     0.213 HD
ENDBRANCH   3   4
BRANCH   3   6
ATOM      6  O   ASP A   1      11.244  10.444   7.912  1.00  0.00    -0.367 OA
ATOM      7  H   UNL     1      11.357   6.659   5.452  1.00  0.00     0.213 HD
ENDBRANCH   3   6
ENDBRANCH   1   3
BRANCH   1   8
ATOM      8  N   ASP A   1      10.155   7.642   7.888  1.00  0.00    -0.285 NA
ATOM      9  H   UNL     1       9.471   7.420   8.529  1.00  0.00     0.125 HD
BRANCH   8  10
ATOM     10  C   ASP A   1      10.027   7.363   9.243  1.00  0.00     0.185 C 
BRANCH  10  11
ATOM     11  C   ASP A   1       8.665   7.519   9.815  1.00  0.00     0.033 C 
ATOM     12  C   ASP A   1       7.980   6.391  10.219  1.00  0.00     0.008 C 
ATOM     13  C   ASP A   1       8.129   8.785   9.923  1.00  0.00     0.008 C 
ATOM     14  C   ASP A   1       6.700   6.539  10.756  1.00  0.00     0.000 C 
ATOM     15  C   ASP A   1       6.850   8.931  10.459  1.00  0.00     0.000 C 
ATOM     16  C   ASP A   1       6.135   7.808  10.875  1.00  0.00     0.000 C 
ENDBRANCH  10  11
BRANCH  10  17
ATOM     17  O   ASP A   1      10.944   6.987   9.969  1.00  0.00    -0.378 OA
ATOM     18  H   UNL     1       9.388   7.825   8.796  1.00  0.00     0.212 HD
ENDBRANCH  10  17
ENDBRANCH   8  10
ENDBRANCH   1   8
TORSDOF 7
ENDMDL
MODEL 8
REMARK VINA RESULT:    -3.741      7.020      9.188
REMARK INTER + INTRA:          -4.414
REMARK INTER:                  -4.879
REMARK INTRA:                   0.465
REMARK UNBOUND:                 0.202
REMARK SMILES C[C@H](NC(O)C1CCCCC1)C(O)O
REMARK SMILES IDX 2 1 1 2 12 3 13 4 14 6 3 8 4 10 6 11 7 12 11 13 8 14 10 15
REMARK SMILES IDX 9 16 5 17
REMARK H PARENT 13 5 14 7 3 9 5 18
ROOT
ATOM      1  C   ASP A   1      16.032   2.297  -3.674  1.00  0.00     0.109 C 
ATOM      2  C   ASP A   1      14.638   1.860  -3.253  1.00  0.00     0.030 C 
ENDROOT
BRANCH   1   3
ATOM      3  C   ASP A   1      16.620   1.308  -4.666  1.00  0.00     0.260 C 
BRANCH   3   4
ATOM      4  O   ASP A   1      15.751   0.370  -5.115  1.00  0.00    -0.367 OA
ATOM      5  H   UNL     1      14.645   2.949  -6.796  1.00  0.00     0.213 HD
ENDBRANCH   3   4
BRANCH   3   6
ATOM      6  O   ASP A   1      17.787   1.355  -5.044  1.00  0.00    -0.367 OA
ATOM      7  H   UNL     1      13.929   1.452  -2.699  1.00  0.00     0.213 HD
ENDBRANCH   3   6
ENDBRANCH   1   3
BRANCH   1   8
ATOM      8  N   ASP A   1      16.004   3.634  -4.207  1.00  0.00    -0.285 NA
ATOM      9  H   UNL     1      16.265   4.529  -4.452  1.00  0.00     0.125 HD
BRANCH   8  10
ATOM     10  C   ASP A   1      16.913   4.611  -3.824  1.00  0.00     0.185 C 
BRANCH  10  11
ATOM     11  C   ASP A   1      16.530   5.434  -2.648  1.00  0.00     0.033 C 
ATOM     12  C   ASP A   1      17.517   5.858  -1.782  1.00  0.00     0.008 C 
ATOM     13  C   ASP A   1      15.200   5.746  -2.459  1.00  0.00     0.008 C 
ATOM     14  C   ASP A   1      17.155   6.630  -0.677  1.00  0.00     0.000 C 
ATOM     15  C   ASP A   1      14.840   6.518  -1.354  1.00  0.00     0.000 C 
ATOM     16  C   ASP A   1      15.818   6.959  -0.462  1.00  0.00     0.000 C 
ENDBRANCH  10  11
BRANCH  10  17
ATOM     17  O   ASP A   1      17.993   4.816  -4.373  1.00  0.00    -0.378 OA
ATOM     18  H   UNL     1      16.165   4.633  -3.313  1.00  0.00     0.212 HD
ENDBRANCH  10  17
ENDBRANCH   8  10
ENDBRANCH   1   8
TORSDOF 7
ENDMDL
MODEL 9
REMARK VINA RESULT:    -3.724      7.949      9.485
REMARK INTER + INTRA:          -4.393
REMARK INTER:                  -4.692
REMARK INTRA:                   0.299
REMARK UNBOUND:                 0.202
REMARK SMILES C[C@H](NC(O)C1CCCCC1)C(O)O
REMARK SMILES IDX 2 1 1 2 12 3 13 4 14 6 3 8 4 10 6 11 7 12 11 13 8 14 10 15
REMARK SMILES IDX 9 16 5 17
REMARK H PARENT 13 5 14 7 3 9 5 18
ROOT
ATOM      1  C   ASP A   1      17.740   6.549  -2.803  1.00  0.00     0.109 C 
ATOM      2  C   ASP A   1      19.067   6.455  -3.540  1.00  0.00     0.030 C 
ENDROOT
BRANCH   1   3
ATOM      3  C   ASP A   1      17.376   8.002  -2.550  1.00  0.00     0.260 C 
BRANCH   3   4
ATOM      4  O   ASP A   1      17.934   8.884  -3.413  1.00  0.00    -0.367 OA
ATOM      5  H   UNL     1      16.819   6.687  -5.566  1.00  0.00     0.213 HD
ENDBRANCH   3   4
BRANCH   3   6
ATOM      6  O   ASP A   1      16.628   8.355  -1.643  1.00  0.00    -0.367 OA
ATOM      7  H   UNL     1      20.149   7.439  -4.317  1.00  0.00     0.213 HD
ENDBRANCH   3   6
ENDBRANCH   1   3
BRANCH   1   8
ATOM      8  N   ASP A   1      16.707   5.859  -3.530  1.00  0.00    -0.285 NA
ATOM      9  H   UNL     1      15.906   5.365  -3.738  1.00  0.00     0.125 HD
BRANCH   8  10
ATOM     10  C   ASP A   1      15.809   4.996  -2.916  1.00  0.00     0.185 C 
BRANCH  10  11
ATOM     11  C   ASP A   1      15.917   3.563  -3.296  1.00  0.00     0.033 C 
ATOM     12  C   ASP A   1      17.069   2.875  -2.974  1.00  0.00     0.008 C 
ATOM     13  C   ASP A   1      14.864   2.969  -3.959  1.00  0.00     0.008 C 
ATOM     14  C   ASP A   1      17.170   1.530  -3.332  1.00  0.00     0.000 C 
ATOM     15  C   ASP A   1      14.966   1.625  -4.316  1.00  0.00     0.000 C 
ATOM     16  C   ASP A   1      16.120   0.905  -4.003  1.00  0.00     0.000 C 
ENDBRANCH  10  11
BRANCH  10  17
ATOM     17  O   ASP A   1      14.967   5.335  -2.088  1.00  0.00    -0.378 OA
ATOM     18  H   UNL     1      16.339   4.893  -3.644  1.00  0.00     0.212 HD
ENDBRANCH  10  17
ENDBRANCH   8  10
ENDBRANCH   1   8
TORSDOF 7
ENDMDL
