MODEL 1
REMARK VINA RESULT:    -8.068      0.000      0.000
REMARK INTER + INTRA:         -13.417
REMARK INTER:                 -11.606
REMARK INTRA:                  -1.811
REMARK UNBOUND:                -1.811
REMARK SMILES CCC(C)(C)C(=O)O[C@H]1C[C@@H](C)C=C2C=C[C@H](C)[C@H](CC[C@@H]3C[C@@H](O)CC(=O)O3)[C@H]21
REMARK SMILES IDX 30 1 19 2 9 3 17 4 14 5 10 6 11 7 13 8 16 9 15 10 18 11
REMARK SMILES IDX 12 12 8 13 6 14 7 15 3 16 4 17 5 18 2 19 1 20 20 21 21 22
REMARK SMILES IDX 22 23 29 24 23 25 27 26 24 27 26 28 28 29 25 30
REMARK H PARENT 25 31
ROOT
ATOM      1  C1  UNL     1      19.620  10.773   9.634  1.00  0.00     0.063 C 
ATOM      2  C2  UNL     1      19.459  12.185   8.978  1.00  0.00     0.007 C 
ATOM      3  C3  UNL     1      20.108   9.673   8.646  1.00  0.00     0.185 C 
ATOM      4  C4  UNL     1      19.405  13.308  10.061  1.00  0.00     0.012 C 
ATOM      5  C5  UNL     1      20.582  10.788  10.811  1.00  0.00    -0.045 C 
ATOM      6  C7  UNL     1      20.141   8.285   9.335  1.00  0.00     0.053 C 
ATOM      7  C8  UNL     1      20.356   8.327  10.874  1.00  0.00     0.012 C 
ATOM      8  C9  UNL     1      20.972   9.622  11.345  1.00  0.00    -0.020 C 
ATOM      9  C11 UNL     1      20.610  13.227  10.960  1.00  0.00    -0.023 C 
ATOM     10  C12 UNL     1      21.118  12.056  11.343  1.00  0.00    -0.000 C 
ATOM     11  C13 UNL     1      18.129  13.285  10.918  1.00  0.00     0.012 C 
ATOM     12  C15 UNL     1      21.178   7.126  11.355  1.00  0.00     0.012 C 
ENDROOT
BRANCH   3  13
ATOM     13  O1  UNL     1      21.432   9.968   8.184  1.00  0.00    -0.461 OA
BRANCH  13  14
ATOM     14  C17 UNL     1      21.727  10.733   7.046  1.00  0.00     0.311 C 
ATOM     15  O4  UNL     1      21.069  10.565   5.983  1.00  0.00    -0.252 OA
BRANCH  14  16
ATOM     16  C19 UNL     1      22.795  11.811   7.117  1.00  0.00     0.062 C 
ATOM     17  C23 UNL     1      23.899  11.538   6.070  1.00  0.00     0.023 C 
ATOM     18  C24 UNL     1      22.159  13.180   6.786  1.00  0.00     0.023 C 
BRANCH  16  19
ATOM     19  C22 UNL     1      23.388  11.876   8.552  1.00  0.00     0.015 C 
ATOM     20  C25 UNL     1      24.890  12.174   8.614  1.00  0.00     0.005 C 
ENDBRANCH  16  19
ENDBRANCH  14  16
ENDBRANCH  13  14
ENDBRANCH   3  13
BRANCH   2  21
ATOM     21  C6  UNL     1      18.249  12.222   8.004  1.00  0.00     0.009 C 
BRANCH  21  22
ATOM     22  C10 UNL     1      17.105  11.280   8.422  1.00  0.00     0.046 C 
BRANCH  22  23
ATOM     23  C14 UNL     1      16.603  10.438   7.239  1.00  0.00     0.179 C 
ATOM     24  O2  UNL     1      15.565   9.557   7.677  1.00  0.00    -0.462 OA
ATOM     25  C16 UNL     1      16.107  11.341   6.096  1.00  0.00     0.077 C 
ATOM     26  C21 UNL     1      14.599   9.028   6.815  1.00  0.00     0.308 C 
ATOM     27  C18 UNL     1      15.495  10.492   4.971  1.00  0.00     0.129 C 
ATOM     28  C20 UNL     1      14.302   9.680   5.493  1.00  0.00     0.154 C 
ATOM     29  O5  UNL     1      13.898   8.056   7.199  1.00  0.00    -0.252 OA
BRANCH  27  30
ATOM     30  O3  UNL     1      16.455   9.620   4.429  1.00  0.00    -0.392 OA
ATOM     31  H   UNL     1      19.335  15.100   3.263  1.00  0.00     0.210 HD
ENDBRANCH  27  30
ENDBRANCH  22  23
ENDBRANCH  21  22
ENDBRANCH   2  21
TORSDOF 8
ENDMDL
MODEL 2
REMARK VINA RESULT:    -7.294      1.038      1.678
REMARK INTER + INTRA:         -12.302
REMARK INTER:                 -10.666
REMARK INTRA:                  -1.637
REMARK UNBOUND:                -1.811
REMARK SMILES CCC(C)(C)C(=O)O[C@H]1C[C@@H](C)C=C2C=C[C@H](C)[C@H](CC[C@@H]3C[C@@H](O)CC(=O)O3)[C@H]21
REMARK SMILES IDX 30 1 19 2 9 3 17 4 14 5 10 6 11 7 13 8 16 9 15 10 18 11
REMARK SMILES IDX 12 12 8 13 6 14 7 15 3 16 4 17 5 18 2 19 1 20 20 21 21 22
REMARK SMILES IDX 22 23 29 24 23 25 27 26 24 27 26 28 28 29 25 30
REMARK H PARENT 25 31
ROOT
ATOM      1  C1  UNL     1      19.612  10.754   9.761  1.00  0.00     0.063 C 
ATOM      2  C2  UNL     1      19.411  12.147   9.077  1.00  0.00     0.007 C 
ATOM      3  C3  UNL     1      20.067   9.633   8.782  1.00  0.00     0.185 C 
ATOM      4  C4  UNL     1      19.393  13.298  10.132  1.00  0.00     0.012 C 
ATOM      5  C5  UNL     1      20.624  10.807  10.894  1.00  0.00    -0.045 C 
ATOM      6  C7  UNL     1      20.142   8.263   9.503  1.00  0.00     0.053 C 
ATOM      7  C8  UNL     1      20.423   8.347  11.031  1.00  0.00     0.012 C 
ATOM      8  C9  UNL     1      21.047   9.659  11.440  1.00  0.00    -0.020 C 
ATOM      9  C11 UNL     1      20.636  13.250  10.980  1.00  0.00    -0.023 C 
ATOM     10  C12 UNL     1      21.171  12.093  11.370  1.00  0.00    -0.000 C 
ATOM     11  C13 UNL     1      18.155  13.288  11.044  1.00  0.00     0.012 C 
ATOM     12  C15 UNL     1      21.276   7.166  11.506  1.00  0.00     0.012 C 
ENDROOT
BRANCH   3  13
ATOM     13  O1  UNL     1      21.367   9.926   8.255  1.00  0.00    -0.461 OA
BRANCH  13  14
ATOM     14  C17 UNL     1      21.606  10.676   7.094  1.00  0.00     0.311 C 
ATOM     15  O4  UNL     1      20.909  10.482   6.061  1.00  0.00    -0.252 OA
BRANCH  14  16
ATOM     16  C19 UNL     1      22.661  11.769   7.105  1.00  0.00     0.062 C 
ATOM     17  C23 UNL     1      22.012  13.141   6.811  1.00  0.00     0.023 C 
ATOM     18  C24 UNL     1      23.305  11.842   8.508  1.00  0.00     0.023 C 
BRANCH  16  19
ATOM     19  C22 UNL     1      23.773  11.442   6.069  1.00  0.00     0.015 C 
ATOM     20  C25 UNL     1      23.771  12.332   4.821  1.00  0.00     0.005 C 
ENDBRANCH  16  19
ENDBRANCH  14  16
ENDBRANCH  13  14
ENDBRANCH   3  13
BRANCH   2  21
ATOM     21  C6  UNL     1      18.159  12.149   8.156  1.00  0.00     0.009 C 
BRANCH  21  22
ATOM     22  C10 UNL     1      16.879  11.683   8.871  1.00  0.00     0.046 C 
BRANCH  22  23
ATOM     23  C14 UNL     1      15.948  10.910   7.923  1.00  0.00     0.179 C 
ATOM     24  O2  UNL     1      15.121  11.827   7.203  1.00  0.00    -0.462 OA
ATOM     25  C16 UNL     1      16.761  10.032   6.955  1.00  0.00     0.077 C 
ATOM     26  C21 UNL     1      14.534  11.520   5.971  1.00  0.00     0.308 C 
ATOM     27  C18 UNL     1      15.829   9.360   5.934  1.00  0.00     0.129 C 
ATOM     28  C20 UNL     1      15.078  10.414   5.110  1.00  0.00     0.154 C 
ATOM     29  O5  UNL     1      13.606  12.249   5.533  1.00  0.00    -0.252 OA
BRANCH  27  30
ATOM     30  O3  UNL     1      14.903   8.524   6.582  1.00  0.00    -0.392 OA
ATOM     31  H   UNL     1      16.862   4.536   2.117  1.00  0.00     0.210 HD
ENDBRANCH  27  30
ENDBRANCH  22  23
ENDBRANCH  21  22
ENDBRANCH   2  21
TORSDOF 8
ENDMDL
MODEL 3
REMARK VINA RESULT:    -7.214      1.187      1.855
REMARK INTER + INTRA:         -12.187
REMARK INTER:                 -10.384
REMARK INTRA:                  -1.803
REMARK UNBOUND:                -1.811
REMARK SMILES CCC(C)(C)C(=O)O[C@H]1C[C@@H](C)C=C2C=C[C@H](C)[C@H](CC[C@@H]3C[C@@H](O)CC(=O)O3)[C@H]21
REMARK SMILES IDX 30 1 19 2 9 3 17 4 14 5 10 6 11 7 13 8 16 9 15 10 18 11
REMARK SMILES IDX 12 12 8 13 6 14 7 15 3 16 4 17 5 18 2 19 1 20 20 21 21 22
REMARK SMILES IDX 22 23 29 24 23 25 27 26 24 27 26 28 28 29 25 30
REMARK H PARENT 25 31
ROOT
ATOM      1  C1  UNL     1      19.718  11.045   9.709  1.00  0.00     0.063 C 
ATOM      2  C2  UNL     1      19.589  12.529   9.229  1.00  0.00     0.007 C 
ATOM      3  C3  UNL     1      20.393  10.105   8.668  1.00  0.00     0.185 C 
ATOM      4  C4  UNL     1      19.329  13.492  10.430  1.00  0.00     0.012 C 
ATOM      5  C5  UNL     1      20.501  10.924  11.006  1.00  0.00    -0.045 C 
ATOM      6  C7  UNL     1      20.390   8.636   9.164  1.00  0.00     0.053 C 
ATOM      7  C8  UNL     1      20.381   8.473  10.711  1.00  0.00     0.012 C 
ATOM      8  C9  UNL     1      20.863   9.707  11.434  1.00  0.00    -0.020 C 
ATOM      9  C11 UNL     1      20.395  13.319  11.479  1.00  0.00    -0.023 C 
ATOM     10  C12 UNL     1      20.896  12.121  11.774  1.00  0.00    -0.000 C 
ATOM     11  C13 UNL     1      17.945  13.319  11.078  1.00  0.00     0.012 C 
ATOM     12  C15 UNL     1      21.179   7.239  11.145  1.00  0.00     0.012 C 
ENDROOT
BRANCH   3  13
ATOM     13  O1  UNL     1      21.754  10.495   8.449  1.00  0.00    -0.461 OA
BRANCH  13  14
ATOM     14  C17 UNL     1      22.292  10.847   7.203  1.00  0.00     0.311 C 
ATOM     15  O4  UNL     1      22.425   9.974   6.302  1.00  0.00    -0.252 OA
BRANCH  14  16
ATOM     16  C19 UNL     1      22.651  12.295   6.917  1.00  0.00     0.062 C 
ATOM     17  C23 UNL     1      22.871  13.063   8.241  1.00  0.00     0.023 C 
ATOM     18  C24 UNL     1      23.973  12.344   6.119  1.00  0.00     0.023 C 
BRANCH  16  19
ATOM     19  C22 UNL     1      21.534  12.959   6.063  1.00  0.00     0.015 C 
ATOM     20  C25 UNL     1      21.279  14.438   6.377  1.00  0.00     0.005 C 
ENDBRANCH  16  19
ENDBRANCH  14  16
ENDBRANCH  13  14
ENDBRANCH   3  13
BRANCH   2  21
ATOM     21  C6  UNL     1      18.530  12.668   8.100  1.00  0.00     0.009 C 
BRANCH  21  22
ATOM     22  C10 UNL     1      17.474  11.549   8.117  1.00  0.00     0.046 C 
BRANCH  22  23
ATOM     23  C14 UNL     1      16.521  11.648   6.917  1.00  0.00     0.179 C 
ATOM     24  O2  UNL     1      16.740  10.548   6.031  1.00  0.00    -0.462 OA
ATOM     25  C16 UNL     1      15.055  11.689   7.384  1.00  0.00     0.077 C 
ATOM     26  C21 UNL     1      15.770  10.082   5.137  1.00  0.00     0.308 C 
ATOM     27  C18 UNL     1      14.107  11.665   6.174  1.00  0.00     0.129 C 
ATOM     28  C20 UNL     1      14.313  10.387   5.350  1.00  0.00     0.154 C 
ATOM     29  O5  UNL     1      16.113   9.309   4.205  1.00  0.00    -0.252 OA
BRANCH  27  30
ATOM     30  O3  UNL     1      14.318  12.789   5.357  1.00  0.00    -0.392 OA
ATOM     31  H   UNL     1       9.833   9.945   1.969  1.00  0.00     0.210 HD
ENDBRANCH  27  30
ENDBRANCH  22  23
ENDBRANCH  21  22
ENDBRANCH   2  21
TORSDOF 8
ENDMDL
MODEL 4
REMARK VINA RESULT:    -7.058      3.170      4.202
REMARK INTER + INTRA:         -11.963
REMARK INTER:                  -9.295
REMARK INTRA:                  -2.667
REMARK UNBOUND:                -1.811
REMARK SMILES CCC(C)(C)C(=O)O[C@H]1C[C@@H](C)C=C2C=C[C@H](C)[C@H](CC[C@@H]3C[C@@H](O)CC(=O)O3)[C@H]21
REMARK SMILES IDX 30 1 19 2 9 3 17 4 14 5 10 6 11 7 13 8 16 9 15 10 18 11
REMARK SMILES IDX 12 12 8 13 6 14 7 15 3 16 4 17 5 18 2 19 1 20 20 21 21 22
REMARK SMILES IDX 22 23 29 24 23 25 27 26 24 27 26 28 28 29 25 30
REMARK H PARENT 25 31
ROOT
ATOM      1  C1  UNL     1      20.012  11.565   8.989  1.00  0.00     0.063 C 
ATOM      2  C2  UNL     1      20.072  12.996   8.359  1.00  0.00     0.007 C 
ATOM      3  C3  UNL     1      20.721  10.473   8.136  1.00  0.00     0.185 C 
ATOM      4  C4  UNL     1      19.755  14.095   9.421  1.00  0.00     0.012 C 
ATOM      5  C5  UNL     1      20.620  11.521  10.382  1.00  0.00    -0.045 C 
ATOM      6  C7  UNL     1      20.530   9.068   8.764  1.00  0.00     0.053 C 
ATOM      7  C8  UNL     1      20.321   9.068  10.305  1.00  0.00     0.012 C 
ATOM      8  C9  UNL     1      20.820  10.331  10.964  1.00  0.00    -0.020 C 
ATOM      9  C11 UNL     1      20.670  13.953  10.610  1.00  0.00    -0.023 C 
ATOM     10  C12 UNL     1      21.024  12.758  11.078  1.00  0.00    -0.000 C 
ATOM     11  C13 UNL     1      18.295  14.096   9.901  1.00  0.00     0.012 C 
ATOM     12  C15 UNL     1      20.950   7.829  10.952  1.00  0.00     0.012 C 
ENDROOT
BRANCH   3  13
ATOM     13  O1  UNL     1      22.127  10.734   8.057  1.00  0.00    -0.461 OA
BRANCH  13  14
ATOM     14  C17 UNL     1      22.834  10.937   6.864  1.00  0.00     0.311 C 
ATOM     15  O4  UNL     1      22.486  10.335   5.811  1.00  0.00    -0.252 OA
BRANCH  14  16
ATOM     16  C19 UNL     1      23.979  11.936   6.825  1.00  0.00     0.062 C 
ATOM     17  C23 UNL     1      25.027  11.590   7.908  1.00  0.00     0.023 C 
ATOM     18  C24 UNL     1      24.678  11.856   5.449  1.00  0.00     0.023 C 
BRANCH  16  19
ATOM     19  C22 UNL     1      23.431  13.378   7.017  1.00  0.00     0.015 C 
ATOM     20  C25 UNL     1      23.626  13.958   8.422  1.00  0.00     0.005 C 
ENDBRANCH  16  19
ENDBRANCH  14  16
ENDBRANCH  13  14
ENDBRANCH   3  13
BRANCH   2  21
ATOM     21  C6  UNL     1      19.172  13.096   7.096  1.00  0.00     0.009 C 
BRANCH  21  22
ATOM     22  C10 UNL     1      19.489  14.321   6.220  1.00  0.00     0.046 C 
BRANCH  22  23
ATOM     23  C14 UNL     1      19.907  13.910   4.800  1.00  0.00     0.179 C 
ATOM     24  O2  UNL     1      21.216  14.409   4.516  1.00  0.00    -0.462 OA
ATOM     25  C16 UNL     1      19.859  12.380   4.637  1.00  0.00     0.077 C 
ATOM     26  C21 UNL     1      22.058  13.841   3.554  1.00  0.00     0.308 C 
ATOM     27  C18 UNL     1      20.395  11.973   3.254  1.00  0.00     0.129 C 
ATOM     28  C20 UNL     1      21.851  12.429   3.082  1.00  0.00     0.154 C 
ATOM     29  O5  UNL     1      23.064  14.486   3.159  1.00  0.00    -0.252 OA
BRANCH  27  30
ATOM     30  O3  UNL     1      19.605  12.528   2.234  1.00  0.00    -0.392 OA
ATOM     31  H   UNL     1      17.233   6.693   2.245  1.00  0.00     0.210 HD
ENDBRANCH  27  30
ENDBRANCH  22  23
ENDBRANCH  21  22
ENDBRANCH   2  21
TORSDOF 8
ENDMDL
MODEL 5
REMARK VINA RESULT:    -6.865      1.949      4.366
REMARK INTER + INTRA:         -11.685
REMARK INTER:                  -9.686
REMARK INTRA:                  -2.000
REMARK UNBOUND:                -1.811
REMARK SMILES CCC(C)(C)C(=O)O[C@H]1C[C@@H](C)C=C2C=C[C@H](C)[C@H](CC[C@@H]3C[C@@H](O)CC(=O)O3)[C@H]21
REMARK SMILES IDX 30 1 19 2 9 3 17 4 14 5 10 6 11 7 13 8 16 9 15 10 18 11
REMARK SMILES IDX 12 12 8 13 6 14 7 15 3 16 4 17 5 18 2 19 1 20 20 21 21 22
REMARK SMILES IDX 22 23 29 24 23 25 27 26 24 27 26 28 28 29 25 30
REMARK H PARENT 25 31
ROOT
ATOM      1  C1  UNL     1      20.889  11.465   8.582  1.00  0.00     0.063 C 
ATOM      2  C2  UNL     1      19.640  10.875   9.319  1.00  0.00     0.007 C 
ATOM      3  C3  UNL     1      20.635  12.856   7.931  1.00  0.00     0.185 C 
ATOM      4  C4  UNL     1      20.050   9.735  10.302  1.00  0.00     0.012 C 
ATOM      5  C5  UNL     1      22.090  11.605   9.502  1.00  0.00    -0.045 C 
ATOM      6  C7  UNL     1      21.876  13.328   7.130  1.00  0.00     0.053 C 
ATOM      7  C8  UNL     1      23.232  12.762   7.640  1.00  0.00     0.012 C 
ATOM      8  C9  UNL     1      23.165  12.277   9.068  1.00  0.00    -0.020 C 
ATOM      9  C11 UNL     1      21.104  10.224  11.261  1.00  0.00    -0.023 C 
ATOM     10  C12 UNL     1      22.073  11.050  10.870  1.00  0.00    -0.000 C 
ATOM     11  C13 UNL     1      20.551   8.460   9.603  1.00  0.00     0.012 C 
ATOM     12  C15 UNL     1      24.362  13.781   7.462  1.00  0.00     0.012 C 
ENDROOT
BRANCH   3  13
ATOM     13  O1  UNL     1      20.360  13.837   8.938  1.00  0.00    -0.461 OA
BRANCH  13  14
ATOM     14  C17 UNL     1      19.077  14.183   9.385  1.00  0.00     0.311 C 
ATOM     15  O4  UNL     1      18.124  14.277   8.563  1.00  0.00    -0.252 OA
BRANCH  14  16
ATOM     16  C19 UNL     1      18.821  14.377  10.870  1.00  0.00     0.062 C 
ATOM     17  C23 UNL     1      17.713  13.412  11.352  1.00  0.00     0.023 C 
ATOM     18  C24 UNL     1      20.109  14.045  11.657  1.00  0.00     0.023 C 
BRANCH  16  19
ATOM     19  C22 UNL     1      18.437  15.856  11.153  1.00  0.00     0.015 C 
ATOM     20  C25 UNL     1      19.532  16.686  11.831  1.00  0.00     0.005 C 
ENDBRANCH  16  19
ENDBRANCH  14  16
ENDBRANCH  13  14
ENDBRANCH   3  13
BRANCH   2  21
ATOM     21  C6  UNL     1      18.541  10.440   8.310  1.00  0.00     0.009 C 
BRANCH  21  22
ATOM     22  C10 UNL     1      17.126  10.878   8.728  1.00  0.00     0.046 C 
BRANCH  22  23
ATOM     23  C14 UNL     1      16.131  10.770   7.563  1.00  0.00     0.179 C 
ATOM     24  O2  UNL     1      15.471   9.502   7.605  1.00  0.00    -0.462 OA
ATOM     25  C16 UNL     1      15.108  11.919   7.609  1.00  0.00     0.077 C 
ATOM     26  C21 UNL     1      14.222   9.272   7.019  1.00  0.00     0.308 C 
ATOM     27  C18 UNL     1      14.046  11.733   6.513  1.00  0.00     0.129 C 
ATOM     28  C20 UNL     1      13.291  10.411   6.710  1.00  0.00     0.154 C 
ATOM     29  O5  UNL     1      13.832   8.088   6.848  1.00  0.00    -0.252 OA
BRANCH  27  30
ATOM     30  O3  UNL     1      14.639  11.751   5.239  1.00  0.00    -0.392 OA
ATOM     31  H   UNL     1      18.090  16.245   7.991  1.00  0.00     0.210 HD
ENDBRANCH  27  30
ENDBRANCH  22  23
ENDBRANCH  21  22
ENDBRANCH   2  21
TORSDOF 8
ENDMDL
MODEL 6
REMARK VINA RESULT:    -6.783      5.173     11.031
REMARK INTER + INTRA:         -11.567
REMARK INTER:                  -9.264
REMARK INTRA:                  -2.304
REMARK UNBOUND:                -1.811
REMARK SMILES CCC(C)(C)C(=O)O[C@H]1C[C@@H](C)C=C2C=C[C@H](C)[C@H](CC[C@@H]3C[C@@H](O)CC(=O)O3)[C@H]21
REMARK SMILES IDX 30 1 19 2 9 3 17 4 14 5 10 6 11 7 13 8 16 9 15 10 18 11
REMARK SMILES IDX 12 12 8 13 6 14 7 15 3 16 4 17 5 18 2 19 1 20 20 21 21 22
REMARK SMILES IDX 22 23 29 24 23 25 27 26 24 27 26 28 28 29 25 30
REMARK H PARENT 25 31
ROOT
ATOM      1  C1  UNL     1      10.459  10.319   7.168  1.00  0.00     0.063 C 
ATOM      2  C2  UNL     1      11.042   8.888   6.920  1.00  0.00     0.007 C 
ATOM      3  C3  UNL     1      10.595  11.273   5.945  1.00  0.00     0.185 C 
ATOM      4  C4  UNL     1      10.501   7.868   7.971  1.00  0.00     0.012 C 
ATOM      5  C5  UNL     1       8.990  10.285   7.557  1.00  0.00    -0.045 C 
ATOM      6  C7  UNL     1      10.096  12.698   6.296  1.00  0.00     0.053 C 
ATOM      7  C8  UNL     1       9.017  12.753   7.414  1.00  0.00     0.012 C 
ATOM      8  C9  UNL     1       8.305  11.436   7.606  1.00  0.00    -0.020 C 
ATOM      9  C11 UNL     1       8.996   7.878   7.984  1.00  0.00    -0.023 C 
ATOM     10  C12 UNL     1       8.305   9.009   7.842  1.00  0.00    -0.000 C 
ATOM     11  C13 UNL     1      11.024   8.106   9.397  1.00  0.00     0.012 C 
ATOM     12  C15 UNL     1       8.013  13.884   7.166  1.00  0.00     0.012 C 
ENDROOT
BRANCH   3  13
ATOM     13  O1  UNL     1       9.815  10.791   4.845  1.00  0.00    -0.461 OA
BRANCH  13  14
ATOM     14  C17 UNL     1       9.538  11.523   3.682  1.00  0.00     0.311 C 
ATOM     15  O4  UNL     1      10.476  11.859   2.907  1.00  0.00    -0.252 OA
BRANCH  14  16
ATOM     16  C19 UNL     1       8.100  11.853   3.320  1.00  0.00     0.062 C 
ATOM     17  C23 UNL     1       7.885  13.384   3.328  1.00  0.00     0.023 C 
ATOM     18  C24 UNL     1       7.804  11.343   1.892  1.00  0.00     0.023 C 
BRANCH  16  19
ATOM     19  C22 UNL     1       7.130  11.146   4.308  1.00  0.00     0.015 C 
ATOM     20  C25 UNL     1       5.903  11.973   4.707  1.00  0.00     0.005 C 
ENDBRANCH  16  19
ENDBRANCH  14  16
ENDBRANCH  13  14
ENDBRANCH   3  13
BRANCH   2  21
ATOM     21  C6  UNL     1      12.594   8.916   6.844  1.00  0.00     0.009 C 
BRANCH  21  22
ATOM     22  C10 UNL     1      13.134   8.792   5.408  1.00  0.00     0.046 C 
BRANCH  22  23
ATOM     23  C14 UNL     1      14.400   9.637   5.203  1.00  0.00     0.179 C 
ATOM     24  O2  UNL     1      14.075  11.026   5.289  1.00  0.00    -0.462 OA
ATOM     25  C16 UNL     1      15.480   9.263   6.233  1.00  0.00     0.077 C 
ATOM     26  C21 UNL     1      15.013  12.010   5.620  1.00  0.00     0.308 C 
ATOM     27  C18 UNL     1      16.694  10.197   6.097  1.00  0.00     0.129 C 
ATOM     28  C20 UNL     1      16.285  11.656   6.338  1.00  0.00     0.154 C 
ATOM     29  O5  UNL     1      14.737  13.220   5.407  1.00  0.00    -0.252 OA
BRANCH  27  30
ATOM     30  O3  UNL     1      17.272  10.075   4.822  1.00  0.00    -0.392 OA
ATOM     31  H   UNL     1      12.011   6.755   3.833  1.00  0.00     0.210 HD
ENDBRANCH  27  30
ENDBRANCH  22  23
ENDBRANCH  21  22
ENDBRANCH   2  21
TORSDOF 8
ENDMDL
MODEL 7
REMARK VINA RESULT:    -6.740      1.414      2.041
REMARK INTER + INTRA:         -11.506
REMARK INTER:                  -9.340
REMARK INTRA:                  -2.166
REMARK UNBOUND:                -1.811
REMARK SMILES CCC(C)(C)C(=O)O[C@H]1C[C@@H](C)C=C2C=C[C@H](C)[C@H](CC[C@@H]3C[C@@H](O)CC(=O)O3)[C@H]21
REMARK SMILES IDX 30 1 19 2 9 3 17 4 14 5 10 6 11 7 13 8 16 9 15 10 18 11
REMARK SMILES IDX 12 12 8 13 6 14 7 15 3 16 4 17 5 18 2 19 1 20 20 21 21 22
REMARK SMILES IDX 22 23 29 24 23 25 27 26 24 27 26 28 28 29 25 30
REMARK H PARENT 25 31
ROOT
ATOM      1  C1  UNL     1      19.197  11.016   9.474  1.00  0.00     0.063 C 
ATOM      2  C2  UNL     1      18.530  11.752   8.264  1.00  0.00     0.007 C 
ATOM      3  C3  UNL     1      20.325  10.026   9.062  1.00  0.00     0.185 C 
ATOM      4  C4  UNL     1      17.746  13.017   8.735  1.00  0.00     0.012 C 
ATOM      5  C5  UNL     1      19.788  11.985  10.485  1.00  0.00    -0.045 C 
ATOM      6  C7  UNL     1      20.865   9.257  10.295  1.00  0.00     0.053 C 
ATOM      7  C8  UNL     1      20.727  10.015  11.646  1.00  0.00     0.012 C 
ATOM      8  C9  UNL     1      20.562  11.505  11.468  1.00  0.00    -0.020 C 
ATOM      9  C11 UNL     1      18.646  13.924   9.532  1.00  0.00    -0.023 C 
ATOM     10  C12 UNL     1      19.554  13.439  10.377  1.00  0.00    -0.000 C 
ATOM     11  C13 UNL     1      16.487  12.700   9.557  1.00  0.00     0.012 C 
ATOM     12  C15 UNL     1      21.900   9.704  12.582  1.00  0.00     0.012 C 
ENDROOT
BRANCH   3  13
ATOM     13  O1  UNL     1      21.420  10.734   8.469  1.00  0.00    -0.461 OA
BRANCH  13  14
ATOM     14  C17 UNL     1      21.889  10.529   7.164  1.00  0.00     0.311 C 
ATOM     15  O4  UNL     1      22.328   9.397   6.819  1.00  0.00    -0.252 OA
BRANCH  14  16
ATOM     16  C19 UNL     1      21.804  11.653   6.146  1.00  0.00     0.062 C 
ATOM     17  C23 UNL     1      23.095  11.704   5.296  1.00  0.00     0.023 C 
ATOM     18  C24 UNL     1      20.620  11.385   5.189  1.00  0.00     0.023 C 
BRANCH  16  19
ATOM     19  C22 UNL     1      21.557  13.007   6.869  1.00  0.00     0.015 C 
ATOM     20  C25 UNL     1      22.474  14.151   6.423  1.00  0.00     0.005 C 
ENDBRANCH  16  19
ENDBRANCH  14  16
ENDBRANCH  13  14
ENDBRANCH   3  13
BRANCH   2  21
ATOM     21  C6  UNL     1      17.661  10.779   7.420  1.00  0.00     0.009 C 
BRANCH  21  22
ATOM     22  C10 UNL     1      17.020  11.448   6.191  1.00  0.00     0.046 C 
BRANCH  22  23
ATOM     23  C14 UNL     1      15.594  10.933   5.943  1.00  0.00     0.179 C 
ATOM     24  O2  UNL     1      15.415   9.671   6.590  1.00  0.00    -0.462 OA
ATOM     25  C16 UNL     1      14.552  11.952   6.436  1.00  0.00     0.077 C 
ATOM     26  C21 UNL     1      14.161   9.175   6.963  1.00  0.00     0.308 C 
ATOM     27  C18 UNL     1      13.133  11.376   6.296  1.00  0.00     0.129 C 
ATOM     28  C20 UNL     1      12.984  10.095   7.129  1.00  0.00     0.154 C 
ATOM     29  O5  UNL     1      14.046   7.959   7.265  1.00  0.00    -0.252 OA
BRANCH  27  30
ATOM     30  O3  UNL     1      12.843  11.097   4.950  1.00  0.00    -0.392 OA
ATOM     31  H   UNL     1       6.958  11.410   7.176  1.00  0.00     0.210 HD
ENDBRANCH  27  30
ENDBRANCH  22  23
ENDBRANCH  21  22
ENDBRANCH   2  21
TORSDOF 8
ENDMDL
MODEL 8
REMARK VINA RESULT:    -6.661      3.353      6.242
REMARK INTER + INTRA:         -11.392
REMARK INTER:                  -9.173
REMARK INTRA:                  -2.219
REMARK UNBOUND:                -1.811
REMARK SMILES CCC(C)(C)C(=O)O[C@H]1C[C@@H](C)C=C2C=C[C@H](C)[C@H](CC[C@@H]3C[C@@H](O)CC(=O)O3)[C@H]21
REMARK SMILES IDX 30 1 19 2 9 3 17 4 14 5 10 6 11 7 13 8 16 9 15 10 18 11
REMARK SMILES IDX 12 12 8 13 6 14 7 15 3 16 4 17 5 18 2 19 1 20 20 21 21 22
REMARK SMILES IDX 22 23 29 24 23 25 27 26 24 27 26 28 28 29 25 30
REMARK H PARENT 25 31
ROOT
ATOM      1  C1  UNL     1      21.251  10.259   9.653  1.00  0.00     0.063 C 
ATOM      2  C2  UNL     1      21.185  11.544   8.762  1.00  0.00     0.007 C 
ATOM      3  C3  UNL     1      21.269  10.555  11.181  1.00  0.00     0.185 C 
ATOM      4  C4  UNL     1      20.731  11.201   7.308  1.00  0.00     0.012 C 
ATOM      5  C5  UNL     1      20.094   9.311   9.386  1.00  0.00    -0.045 C 
ATOM      6  C7  UNL     1      21.444   9.249  11.997  1.00  0.00     0.053 C 
ATOM      7  C8  UNL     1      20.911   7.967  11.294  1.00  0.00     0.012 C 
ATOM      8  C9  UNL     1      19.906   8.269  10.208  1.00  0.00    -0.020 C 
ATOM      9  C11 UNL     1      19.425  10.451   7.331  1.00  0.00    -0.023 C 
ATOM     10  C12 UNL     1      19.160   9.542   8.267  1.00  0.00    -0.000 C 
ATOM     11  C13 UNL     1      21.766  10.396   6.506  1.00  0.00     0.012 C 
ATOM     12  C15 UNL     1      20.335   6.974  12.309  1.00  0.00     0.012 C 
ENDROOT
BRANCH   3  13
ATOM     13  O1  UNL     1      20.039  11.168  11.587  1.00  0.00    -0.461 OA
BRANCH  13  14
ATOM     14  C17 UNL     1      19.946  12.311  12.393  1.00  0.00     0.311 C 
ATOM     15  O4  UNL     1      20.304  12.264  13.602  1.00  0.00    -0.252 OA
BRANCH  14  16
ATOM     16  C19 UNL     1      19.476  13.624  11.790  1.00  0.00     0.062 C 
ATOM     17  C23 UNL     1      18.623  13.359  10.528  1.00  0.00     0.023 C 
ATOM     18  C24 UNL     1      18.586  14.365  12.813  1.00  0.00     0.023 C 
BRANCH  16  19
ATOM     19  C22 UNL     1      20.701  14.523  11.459  1.00  0.00     0.015 C 
ATOM     20  C25 UNL     1      20.351  15.901  10.885  1.00  0.00     0.005 C 
ENDBRANCH  16  19
ENDBRANCH  14  16
ENDBRANCH  13  14
ENDBRANCH   3  13
BRANCH   2  21
ATOM     21  C6  UNL     1      22.522  12.335   8.810  1.00  0.00     0.009 C 
BRANCH  21  22
ATOM     22  C10 UNL     1      22.373  13.805   8.379  1.00  0.00     0.046 C 
BRANCH  22  23
ATOM     23  C14 UNL     1      22.999  14.059   6.999  1.00  0.00     0.179 C 
ATOM     24  O2  UNL     1      23.844  12.962   6.642  1.00  0.00    -0.462 OA
ATOM     25  C16 UNL     1      21.909  14.278   5.935  1.00  0.00     0.077 C 
ATOM     26  C21 UNL     1      24.169  12.649   5.318  1.00  0.00     0.308 C 
ATOM     27  C18 UNL     1      22.542  14.408   4.540  1.00  0.00     0.129 C 
ATOM     28  C20 UNL     1      23.319  13.135   4.177  1.00  0.00     0.154 C 
ATOM     29  O5  UNL     1      25.124  11.863   5.088  1.00  0.00    -0.252 OA
BRANCH  27  30
ATOM     30  O3  UNL     1      23.406  15.516   4.490  1.00  0.00    -0.392 OA
ATOM     31  H   UNL     1      17.903  18.573   4.715  1.00  0.00     0.210 HD
ENDBRANCH  27  30
ENDBRANCH  22  23
ENDBRANCH  21  22
ENDBRANCH   2  21
TORSDOF 8
ENDMDL
MODEL 9
REMARK VINA RESULT:    -6.642      3.378      6.590
REMARK INTER + INTRA:         -11.365
REMARK INTER:                  -9.637
REMARK INTRA:                  -1.728
REMARK UNBOUND:                -1.811
REMARK SMILES CCC(C)(C)C(=O)O[C@H]1C[C@@H](C)C=C2C=C[C@H](C)[C@H](CC[C@@H]3C[C@@H](O)CC(=O)O3)[C@H]21
REMARK SMILES IDX 30 1 19 2 9 3 17 4 14 5 10 6 11 7 13 8 16 9 15 10 18 11
REMARK SMILES IDX 12 12 8 13 6 14 7 15 3 16 4 17 5 18 2 19 1 20 20 21 21 22
REMARK SMILES IDX 22 23 29 24 23 25 27 26 24 27 26 28 28 29 25 30
REMARK H PARENT 25 31
ROOT
ATOM      1  C1  UNL     1      21.301  10.267   9.716  1.00  0.00     0.063 C 
ATOM      2  C2  UNL     1      21.258  11.574   8.854  1.00  0.00     0.007 C 
ATOM      3  C3  UNL     1      21.308  10.528  11.251  1.00  0.00     0.185 C 
ATOM      4  C4  UNL     1      20.814  11.270   7.389  1.00  0.00     0.012 C 
ATOM      5  C5  UNL     1      20.135   9.340   9.417  1.00  0.00    -0.045 C 
ATOM      6  C7  UNL     1      21.460   9.200  12.037  1.00  0.00     0.053 C 
ATOM      7  C8  UNL     1      20.918   7.942  11.300  1.00  0.00     0.012 C 
ATOM      8  C9  UNL     1      19.927   8.282  10.212  1.00  0.00    -0.020 C 
ATOM      9  C11 UNL     1      19.499  10.536   7.382  1.00  0.00    -0.023 C 
ATOM     10  C12 UNL     1      19.214   9.608   8.295  1.00  0.00    -0.000 C 
ATOM     11  C13 UNL     1      21.847  10.471   6.578  1.00  0.00     0.012 C 
ATOM     12  C15 UNL     1      20.321   6.933  12.286  1.00  0.00     0.012 C 
ENDROOT
BRANCH   3  13
ATOM     13  O1  UNL     1      20.082  11.146  11.659  1.00  0.00    -0.461 OA
BRANCH  13  14
ATOM     14  C17 UNL     1      19.983  12.160  12.622  1.00  0.00     0.311 C 
ATOM     15  O4  UNL     1      20.326  11.935  13.816  1.00  0.00    -0.252 OA
BRANCH  14  16
ATOM     16  C19 UNL     1      19.526  13.549  12.212  1.00  0.00     0.062 C 
ATOM     17  C23 UNL     1      19.256  14.414  13.465  1.00  0.00     0.023 C 
ATOM     18  C24 UNL     1      20.647  14.235  11.399  1.00  0.00     0.023 C 
BRANCH  16  19
ATOM     19  C22 UNL     1      18.258  13.448  11.318  1.00  0.00     0.015 C 
ATOM     20  C25 UNL     1      18.493  13.748   9.833  1.00  0.00     0.005 C 
ENDBRANCH  16  19
ENDBRANCH  14  16
ENDBRANCH  13  14
ENDBRANCH   3  13
BRANCH   2  21
ATOM     21  C6  UNL     1      22.604  12.347   8.932  1.00  0.00     0.009 C 
BRANCH  21  22
ATOM     22  C10 UNL     1      22.548  13.732   8.264  1.00  0.00     0.046 C 
BRANCH  22  23
ATOM     23  C14 UNL     1      23.136  13.701   6.844  1.00  0.00     0.179 C 
ATOM     24  O2  UNL     1      22.322  14.483   5.966  1.00  0.00    -0.462 OA
ATOM     25  C16 UNL     1      24.588  14.211   6.843  1.00  0.00     0.077 C 
ATOM     26  C21 UNL     1      22.803  15.044   4.778  1.00  0.00     0.308 C 
ATOM     27  C18 UNL     1      25.124  14.292   5.404  1.00  0.00     0.129 C 
ATOM     28  C20 UNL     1      24.276  15.256   4.564  1.00  0.00     0.154 C 
ATOM     29  O5  UNL     1      21.984  15.474   3.925  1.00  0.00    -0.252 OA
BRANCH  27  30
ATOM     30  O3  UNL     1      25.125  13.021   4.804  1.00  0.00    -0.392 OA
ATOM     31  H   UNL     1      28.012  16.264   0.240  1.00  0.00     0.210 HD
ENDBRANCH  27  30
ENDBRANCH  22  23
ENDBRANCH  21  22
ENDBRANCH   2  21
TORSDOF 8
ENDMDL
